data_00001
_audit_creation_method   'DISCUS'

_data_chemical_name_common 'Pd.cell: Pearson 85'

_cell_length_a             53.0257
_cell_length_b             57.1046
_cell_length_c             57.1046
_cell_angle_alpha     90.0000
_cell_angle_beta      90.0000
_cell_angle_gamma     90.0000

_symmetry_space_group_name_H-M   'P1              '

loop_
_atom_site_label
_atom_site_symbol
_atom_site_fract_x
_atom_site_fract_y
_atom_site_fract_z
_atom_site_u_iso_or_equiv
NI1   NI        0.376584    0.215746    0.061726     0.004307
NI2   NI        0.451415    0.246387    0.069703     0.004307
NI3   NI        0.533612    0.275827    0.047914     0.004307
NI4   NI        0.308591    0.315166    0.069041     0.004307
NI5   NI        0.343008    0.280784    0.068787     0.004307
NI6   NI        0.347431    0.308927    0.042083     0.004307
NI7   NI        0.404573    0.294521    0.047698     0.004307
NI8   NI        0.473411    0.319380    0.050545     0.004307
NI9   NI        0.491315    0.281117    0.070715     0.004307
NI10   NI        0.526055    0.315025    0.070159     0.004307
NI11   NI        0.532480    0.264970    0.054673     0.004307
NI12   NI        0.607543    0.340631    0.049934     0.004307
NI13   NI        0.271335    0.347410    0.070094     0.004307
NI14   NI        0.308582    0.382993    0.069729     0.004307
NI15   NI        0.344184    0.346830    0.069757     0.004307
NI16   NI        0.378688    0.382296    0.066632     0.004307
NI17   NI        0.416608    0.348317    0.071359     0.004307
NI18   NI        0.418970    0.382205    0.035427     0.004307
NI19   NI        0.442626    0.322475    0.032206     0.004307
NI20   NI        0.454991    0.361886    0.058774     0.004307
NI21   NI        0.452839    0.349784    0.035407     0.004307
NI22   NI        0.491450    0.384080    0.036775     0.004307
NI23   NI        0.563684    0.382314    0.034633     0.004307
NI24   NI        0.599033    0.349143    0.033950     0.004307
NI25   NI        0.603041    0.368816    0.057873     0.004307
NI26   NI        0.638404    0.336966    0.056935     0.004307
NI27   NI        0.270976    0.415631    0.067176     0.004307
NI28   NI        0.286474    0.475486    0.042094     0.004307
NI29   NI        0.355702    0.430765    0.062667     0.004307
NI30   NI        0.369242    0.446530    0.023799     0.004307
NI31   NI        0.391766    0.453180    0.085975     0.004307
NI32   NI        0.417141    0.415233    0.069316     0.004307
NI33   NI        0.416869    0.450963    0.033569     0.004307
NI34   NI        0.454879    0.415305    0.036224     0.004307
NI35   NI        0.460470    0.447163    0.072049     0.004307
NI36   NI        0.490098    0.417779    0.069612     0.004307
NI37   NI        0.488998    0.415072    0.000714     0.004307
NI38   NI        0.525833    0.417264    0.032913     0.004307
NI39   NI        0.531348    0.442877    0.074841     0.004307
NI40   NI        0.567302    0.401238    0.054986     0.004307
NI41   NI        0.617365    0.467630    0.061473     0.004307
NI42   NI        0.646713    0.390087    0.073777     0.004307
NI43   NI        0.269301    0.513102    0.030083     0.004307
NI44   NI        0.296396    0.516770    0.063005     0.004307
NI45   NI        0.338444    0.483865    0.063628     0.004307
NI46   NI        0.379936    0.508479    0.076134     0.004307
NI47   NI        0.426699    0.486071    0.064314     0.004307
NI48   NI        0.455463    0.483533    0.035741     0.004307
NI49   NI        0.455013    0.519662    0.068840     0.004307
NI50   NI        0.493752    0.483641    0.068825     0.004307
NI51   NI        0.528934    0.519709    0.067164     0.004307
NI52   NI        0.588494    0.471188    0.057126     0.004307
NI53   NI        0.604529    0.517087    0.067310     0.004307
NI54   NI        0.636387    0.514951    0.031255     0.004307
NI55   NI        0.332449    0.554389    0.060598     0.004307
NI56   NI        0.373690    0.591930    0.083766     0.004307
NI57   NI        0.431939    0.566863    0.044939     0.004307
NI58   NI        0.448970    0.610920    0.056235     0.004307
NI59   NI        0.491682    0.554080    0.066885     0.004307
NI60   NI        0.531171    0.587151    0.067127     0.004307
NI61   NI        0.566458    0.554130    0.066691     0.004307
NI62   NI        0.308209    0.179428    0.135058     0.004307
NI63   NI        0.379564    0.177187    0.135760     0.004307
NI64   NI        0.417714    0.142140    0.134376     0.004307
NI65   NI        0.417359    0.178055    0.101946     0.004307
NI66   NI        0.467414    0.187787    0.168209     0.004307
NI67   NI        0.493728    0.158463    0.124789     0.004307
NI68   NI        0.490463    0.203670    0.089918     0.004307
NI69   NI        0.540620    0.163451    0.136697     0.004307
NI70   NI        0.609978    0.167773    0.130757     0.004307
NI71   NI        0.264770    0.249424    0.108833     0.004307
NI72   NI        0.254946    0.212660    0.132291     0.004307
NI73   NI        0.269246    0.247452    0.100898     0.004307
NI74   NI        0.304936    0.244885    0.136342     0.004307
NI75   NI        0.330356    0.223604    0.124672     0.004307
NI76   NI        0.341693    0.246667    0.101645     0.004307
NI77   NI        0.377694    0.212006    0.101459     0.004307
NI78   NI        0.379655    0.222543    0.105403     0.004307
NI79   NI        0.417791    0.211771    0.136608     0.004307
NI80   NI        0.424928    0.261409    0.086047     0.004307
NI81   NI        0.464037    0.225906    0.086018     0.004307
NI82   NI        0.453675    0.245006    0.137127     0.004307
NI83   NI        0.496671    0.234503    0.120747     0.004307
NI84   NI        0.521786    0.242207    0.082738     0.004307
NI85   NI        0.505856    0.200445    0.090609     0.004307
NI86   NI        0.542535    0.233026    0.129407     0.004307
NI87   NI        0.571605    0.198167    0.136567     0.004307
NI88   NI        0.564151    0.236973    0.080008     0.004307
NI89   NI        0.594783    0.240722    0.130556     0.004307
NI90   NI        0.625289    0.205813    0.113492     0.004307
NI91   NI        0.634369    0.247417    0.101915     0.004307
NI92   NI        0.682948    0.237210    0.130427     0.004307
NI93   NI        0.155435    0.275524    0.129553     0.004307
NI94   NI        0.232168    0.315083    0.137935     0.004307
NI95   NI        0.270793    0.284890    0.133841     0.004307
NI96   NI        0.234861    0.326751    0.134921     0.004307
NI97   NI        0.307887    0.269893    0.080444     0.004307
PD98   PD        0.307097    0.313258    0.139143     0.005394
NI99   NI        0.341543    0.270310    0.115705     0.004307
NI100   NI        0.344105    0.313297    0.102874     0.004307
NI101   NI        0.379315    0.282136    0.102696     0.004307
NI102   NI        0.398247    0.332217    0.097609     0.004307
PD103   PD        0.418844    0.280998    0.138136     0.005394
NI104   NI        0.417295    0.314596    0.108421     0.004307
NI105   NI        0.453659    0.280635    0.106058     0.004307
PD106   PD        0.451657    0.316905    0.140347     0.005394
PD107   PD        0.491564    0.278721    0.137503     0.005394
NI108   NI        0.489097    0.317175    0.102960     0.004307
NI109   NI        0.526168    0.282578    0.102865     0.004307
PD110   PD        0.525402    0.315102    0.138363     0.005394
NI111   NI        0.565862    0.308787    0.116309     0.004307
NI112   NI        0.562432    0.314665    0.103103     0.004307
NI113   NI        0.599176    0.281103    0.104277     0.004307
NI114   NI        0.600396    0.314298    0.138595     0.004307
NI115   NI        0.644209    0.270126    0.128302     0.004307
NI116   NI        0.637437    0.313975    0.106231     0.004307
NI117   NI        0.681717    0.305586    0.127050     0.004307
NI118   NI        0.718650    0.273365    0.127998     0.004307
NI119   NI        0.140421    0.357941    0.127570     0.004307
NI120   NI        0.145989    0.344870    0.129176     0.004307
NI121   NI        0.196452    0.382575    0.101935     0.004307
NI122   NI        0.234262    0.349569    0.101875     0.004307
NI123   NI        0.232529    0.382147    0.137303     0.004307
PD124   PD        0.269777    0.348038    0.137474     0.005394
NI125   NI        0.235527    0.383275    0.067441     0.004307
NI126   NI        0.309822    0.348942    0.104977     0.004307
PD127   PD        0.308322    0.380140    0.140487     0.005394
NI128   NI        0.367390    0.345743    0.132613     0.004307
NI129   NI        0.366454    0.388079    0.081690     0.004307
NI130   NI        0.380462    0.347880    0.104606     0.004307
NI131   NI        0.344354    0.381245    0.104167     0.004307
PD132   PD        0.417331    0.349647    0.138409     0.005394
NI133   NI        0.398386    0.412186    0.112800     0.004307
PD134   PD        0.453345    0.347820    0.103807     0.005394
NI135   NI        0.439071    0.392699    0.130481     0.004307
NI136   NI        0.495829    0.333094    0.128456     0.004307
NI137   NI        0.528762    0.381360    0.068746     0.004307
NI138   NI        0.529058    0.337522    0.095517     0.004307
PD139   PD        0.527811    0.383033    0.137929     0.005394
NI140   NI        0.545927    0.353928    0.119456     0.004307
NI141   NI        0.564239    0.383648    0.104268     0.004307
NI142   NI        0.606418    0.336649    0.093617     0.004307
NI143   NI        0.602114    0.383078    0.137731     0.004307
NI144   NI        0.643067    0.339730    0.126658     0.004307
NI145   NI        0.614282    0.389982    0.099759     0.004307
NI146   NI        0.679012    0.338541    0.092040     0.004307
NI147   NI        0.681646    0.373926    0.123827     0.004307
NI148   NI        0.717326    0.340124    0.123942     0.004307
NI149   NI        0.715735    0.372305    0.089707     0.004307
NI150   NI        0.756929    0.382962    0.152317     0.004307
NI151   NI        0.160616    0.415809    0.101355     0.004307
NI152   NI        0.195057    0.414350    0.134478     0.004307
NI153   NI        0.225275    0.463066    0.094300     0.004307
NI154   NI        0.233895    0.416604    0.103081     0.004307
NI155   NI        0.234262    0.450403    0.136830     0.004307
NI156   NI        0.272724    0.413767    0.136845     0.004307
NI157   NI        0.271263    0.449879    0.102175     0.004307
NI158   NI        0.308568    0.417299    0.102625     0.004307
PD159   PD        0.308915    0.450626    0.136499     0.005394
PD160   PD        0.344997    0.415303    0.139549     0.005394
NI161   NI        0.323348    0.461997    0.090389     0.004307
NI162   NI        0.359320    0.431943    0.095146     0.004307
NI163   NI        0.380745    0.454479    0.135371     0.004307
NI164   NI        0.397175    0.423766    0.126833     0.004307
NI165   NI        0.451494    0.448993    0.069315     0.004307
NI166   NI        0.451403    0.416957    0.101118     0.004307
NI167   NI        0.455481    0.453160    0.140467     0.004307
NI168   NI        0.479836    0.408262    0.105791     0.004307
NI169   NI        0.491898    0.450790    0.103011     0.004307
NI170   NI        0.547427    0.425442    0.089841     0.004307
NI171   NI        0.543354    0.466828    0.110218     0.004307
PD172   PD        0.563603    0.417286    0.136495     0.005394
NI173   NI        0.580913    0.442332    0.089290     0.004307
NI174   NI        0.634965    0.449902    0.102369     0.004307
NI175   NI        0.603789    0.451977    0.138134     0.004307
NI176   NI        0.643642    0.407066    0.123806     0.004307
NI177   NI        0.658801    0.459740    0.111857     0.004307
NI178   NI        0.674452    0.417344    0.102051     0.004307
NI179   NI        0.678327    0.441839    0.121742     0.004307
NI180   NI        0.714203    0.410219    0.122803     0.004307
NI181   NI        0.714491    0.441415    0.086170     0.004307
NI182   NI        0.748974    0.450938    0.136638     0.004307
NI183   NI        0.193580    0.482723    0.136263     0.004307
NI184   NI        0.247975    0.497910    0.062759     0.004307
NI185   NI        0.228131    0.518558    0.134399     0.004307
NI186   NI        0.268094    0.509058    0.151145     0.004307
NI187   NI        0.272205    0.516825    0.101411     0.004307
NI188   NI        0.308941    0.479573    0.104164     0.004307
NI189   NI        0.311341    0.516620    0.133421     0.004307
PD190   PD        0.345240    0.484239    0.139232     0.005394
NI191   NI        0.335267    0.519542    0.093779     0.004307
NI192   NI        0.380056    0.507998    0.076325     0.004307
NI193   NI        0.371950    0.522709    0.128820     0.004307
PD194   PD        0.418742    0.486321    0.137776     0.005394
NI195   NI        0.419968    0.519442    0.102270     0.004307
NI196   NI        0.422702    0.481423    0.071735     0.004307
PD197   PD        0.458110    0.521104    0.135023     0.005394
NI198   NI        0.506502    0.497605    0.130945     0.004307
NI199   NI        0.493689    0.518480    0.101079     0.004307
NI200   NI        0.519223    0.507943    0.092135     0.004307
PD201   PD        0.530386    0.520562    0.134682     0.005394
NI202   NI        0.568861    0.485608    0.135206     0.004307
NI203   NI        0.565133    0.521047    0.100750     0.004307
NI204   NI        0.602674    0.484228    0.101213     0.004307
NI205   NI        0.606486    0.512473    0.123818     0.004307
NI206   NI        0.614094    0.466481    0.126405     0.004307
NI207   NI        0.640352    0.520591    0.100754     0.004307
NI208   NI        0.675114    0.474626    0.088520     0.004307
NI209   NI        0.678339    0.519635    0.135801     0.004307
NI210   NI        0.712794    0.485761    0.135799     0.004307
NI211   NI        0.192903    0.549300    0.136016     0.004307
NI212   NI        0.271810    0.587083    0.102175     0.004307
NI213   NI        0.271420    0.552380    0.133080     0.004307
NI214   NI        0.257293    0.579539    0.099167     0.004307
NI215   NI        0.297181    0.552904    0.094564     0.004307
NI216   NI        0.297578    0.584673    0.129729     0.004307
NI217   NI        0.334806    0.554726    0.128236     0.004307
NI218   NI        0.346862    0.583866    0.102097     0.004307
NI219   NI        0.371167    0.553122    0.093093     0.004307
NI220   NI        0.371286    0.589802    0.126258     0.004307
NI221   NI        0.406008    0.555554    0.126959     0.004307
NI222   NI        0.406542    0.588884    0.090936     0.004307
NI223   NI        0.446904    0.553474    0.106252     0.004307
PD224   PD        0.422357    0.590229    0.167660     0.005394
PD225   PD        0.493704    0.553052    0.136609     0.005394
NI226   NI        0.494277    0.585634    0.101313     0.004307
NI227   NI        0.531009    0.553696    0.102519     0.004307
PD228   PD        0.529626    0.589190    0.135486     0.005394
NI229   NI        0.569695    0.557009    0.133640     0.004307
NI230   NI        0.565086    0.588106    0.100897     0.004307
NI231   NI        0.605520    0.555038    0.100616     0.004307
NI232   NI        0.605172    0.587510    0.133484     0.004307
NI233   NI        0.653704    0.542091    0.108559     0.004307
NI234   NI        0.639624    0.587475    0.099453     0.004307
NI235   NI        0.678425    0.588942    0.134891     0.004307
NI236   NI        0.714520    0.555357    0.133853     0.004307
NI237   NI        0.312890    0.622708    0.102812     0.004307
NI238   NI        0.297784    0.653413    0.130833     0.004307
NI239   NI        0.309853    0.584682    0.134876     0.004307
NI240   NI        0.366418    0.623551    0.091903     0.004307
NI241   NI        0.384127    0.656188    0.134875     0.004307
NI242   NI        0.420531    0.621509    0.137269     0.004307
NI243   NI        0.420534    0.656340    0.100921     0.004307
NI244   NI        0.455672    0.620540    0.101614     0.004307
NI245   NI        0.442918    0.660464    0.123096     0.004307
NI246   NI        0.493279    0.621865    0.134857     0.004307
NI247   NI        0.492785    0.654644    0.100155     0.004307
NI248   NI        0.528281    0.620080    0.100402     0.004307
NI249   NI        0.522681    0.655312    0.128832     0.004307
NI250   NI        0.560902    0.624610    0.132952     0.004307
NI251   NI        0.606195    0.658353    0.135252     0.004307
NI252   NI        0.640942    0.621757    0.135306     0.004307
NI253   NI        0.419470    0.691622    0.135513     0.004307
NI254   NI        0.516735    0.696627    0.152332     0.004307
NI255   NI        0.296027    0.124177    0.185391     0.004307
NI256   NI        0.381238    0.107323    0.201802     0.004307
NI257   NI        0.421541    0.083348    0.186646     0.004307
NI258   NI        0.416715    0.108165    0.168102     0.004307
NI259   NI        0.463814    0.107730    0.183489     0.004307
NI260   NI        0.503287    0.051845    0.188688     0.004307
NI261   NI        0.490560    0.107327    0.170860     0.004307
NI262   NI        0.534362    0.124024    0.188678     0.004307
NI263   NI        0.614380    0.086818    0.185831     0.004307
NI264   NI        0.210038    0.173814    0.194029     0.004307
NI265   NI        0.285764    0.127125    0.187715     0.004307
NI266   NI        0.270396    0.203275    0.161647     0.004307
NI267   NI        0.290683    0.159872    0.157265     0.004307
NI268   NI        0.302218    0.169596    0.202449     0.004307
NI269   NI        0.343460    0.141904    0.203391     0.004307
NI270   NI        0.341463    0.202432    0.162052     0.004307
NI271   NI        0.381172    0.141551    0.169592     0.004307
NI272   NI        0.382657    0.176549    0.203480     0.004307
NI273   NI        0.431257    0.156334    0.195916     0.004307
NI274   NI        0.416267    0.176571    0.169760     0.004307
NI275   NI        0.452952    0.143165    0.169867     0.004307
PD276   PD        0.452363    0.176931    0.204074     0.005394
NI277   NI        0.489801    0.144578    0.203568     0.004307
NI278   NI        0.490339    0.180055    0.170982     0.004307
NI279   NI        0.548361    0.117217    0.146582     0.004307
NI280   NI        0.496066    0.150284    0.207517     0.004307
NI281   NI        0.541007    0.139078    0.189461     0.004307
NI282   NI        0.553361    0.161401    0.149659     0.004307
NI283   NI        0.601264    0.158586    0.147602     0.004307
NI284   NI        0.601307    0.177525    0.206368     0.004307
NI285   NI        0.631546    0.128857    0.172254     0.004307
NI286   NI        0.636740    0.178250    0.172113     0.004307
NI287   NI        0.685367    0.171104    0.200043     0.004307
NI288   NI        0.140495    0.226336    0.198289     0.004307
NI289   NI        0.195863    0.209914    0.202746     0.004307
NI290   NI        0.162982    0.214969    0.163330     0.004307
NI291   NI        0.245613    0.228759    0.195458     0.004307
PD292   PD        0.230225    0.246013    0.205800     0.005394
NI293   NI        0.307562    0.177323    0.203582     0.004307
NI294   NI        0.268224    0.244330    0.169797     0.004307
NI295   NI        0.292023    0.203428    0.152930     0.004307
PD296   PD        0.306946    0.244690    0.204921     0.005394
PD297   PD        0.343378    0.209469    0.204407     0.005394
NI298   NI        0.323056    0.237016    0.169149     0.004307
PD299   PD        0.379640    0.211089    0.170650     0.005394
PD300   PD        0.380867    0.245153    0.205649     0.005394
PD301   PD        0.415920    0.211473    0.204576     0.005394
NI302   NI        0.415466    0.247161    0.174945     0.004307
NI303   NI        0.443460    0.199292    0.151953     0.004307
NI304   NI        0.457096    0.223134    0.189830     0.004307
NI305   NI        0.501495    0.198075    0.200197     0.004307
NI306   NI        0.455336    0.245525    0.145931     0.004307
NI307   NI        0.535913    0.202831    0.163996     0.004307
NI308   NI        0.534739    0.237715    0.198286     0.004307
NI309   NI        0.563109    0.212344    0.203390     0.004307
NI310   NI        0.573210    0.237911    0.164055     0.004307
NI311   NI        0.620781    0.220100    0.159438     0.004307
NI312   NI        0.609518    0.237757    0.198360     0.004307
NI313   NI        0.647438    0.203393    0.197980     0.004307
NI314   NI        0.647942    0.239830    0.163939     0.004307
NI315   NI        0.693963    0.184244    0.194138     0.004307
NI316   NI        0.675575    0.245328    0.206794     0.004307
NI317   NI        0.711241    0.211266    0.206392     0.004307
NI318   NI        0.720711    0.238549    0.161258     0.004307
NI319   NI        0.758270    0.239769    0.196723     0.004307
NI320   NI        0.122176    0.278720    0.204938     0.004307
NI321   NI        0.156974    0.280065    0.170014     0.004307
NI322   NI        0.159957    0.313891    0.205026     0.004307
NI323   NI        0.153547    0.291964    0.193291     0.004307
NI324   NI        0.197592    0.314031    0.171232     0.004307
NI325   NI        0.233481    0.281016    0.171631     0.004307
PD326   PD        0.233410    0.313478    0.207591     0.005394
PD327   PD        0.267075    0.276970    0.203246     0.005394
PD328   PD        0.271308    0.313921    0.170724     0.005394
PD329   PD        0.304458    0.279153    0.171212     0.005394
PD330   PD        0.306797    0.313581    0.206178     0.005394
PD331   PD        0.341844    0.277135    0.205927     0.005394
PD332   PD        0.344895    0.312462    0.172778     0.005394
PD333   PD        0.380824    0.278878    0.171676     0.005394
NI334   NI        0.374796    0.299836    0.183912     0.004307
PD335   PD        0.390288    0.287183    0.186721     0.005394
NI336   NI        0.403979    0.320758    0.156823     0.004307
PD337   PD        0.451280    0.284014    0.175219     0.005394
PD338   PD        0.461551    0.314811    0.206067     0.005394
PD339   PD        0.493700    0.279272    0.208051     0.005394
PD340   PD        0.488728    0.315832    0.170155     0.005394
NI341   NI        0.535505    0.269704    0.163332     0.004307
NI342   NI        0.526271    0.308781    0.185960     0.004307
NI343   NI        0.561438    0.257555    0.187374     0.004307
NI344   NI        0.571621    0.304408    0.163917     0.004307
NI345   NI        0.608801    0.272019    0.163157     0.004307
PD346   PD        0.609416    0.307032    0.195711     0.005394
NI347   NI        0.645949    0.272104    0.196019     0.004307
NI348   NI        0.643139    0.304372    0.160734     0.004307
NI349   NI        0.683570    0.273137    0.160459     0.004307
NI350   NI        0.681949    0.307882    0.193425     0.004307
NI351   NI        0.719672    0.274198    0.194754     0.004307
NI352   NI        0.718887    0.306794    0.160849     0.004307
NI353   NI        0.754611    0.272371    0.160356     0.004307
NI354   NI        0.747188    0.316369    0.204661     0.004307
NI355   NI        0.793265    0.273814    0.191227     0.004307
NI356   NI        0.071459    0.399435    0.189495     0.004307
NI357   NI        0.122242    0.348909    0.207581     0.004307
NI358   NI        0.114134    0.346736    0.165501     0.004307
NI359   NI        0.158990    0.347981    0.171250     0.004307
NI360   NI        0.158505    0.381950    0.204905     0.004307
PD361   PD        0.195714    0.346206    0.205703     0.005394
NI362   NI        0.186855    0.357815    0.156307     0.004307
NI363   NI        0.228303    0.327115    0.163547     0.004307
PD364   PD        0.234504    0.381411    0.205455     0.005394
NI365   NI        0.260769    0.336315    0.199341     0.004307
PD366   PD        0.269870    0.383089    0.169986     0.005394
PD367   PD        0.308381    0.347586    0.171376     0.005394
PD368   PD        0.307179    0.380609    0.203788     0.005394
PD369   PD        0.339138    0.347072    0.205782     0.005394
PD370   PD        0.346822    0.381210    0.173127     0.005394
PD371   PD        0.380456    0.312903    0.138950     0.005394
NI372   NI        0.353811    0.380751    0.184844     0.004307
PD373   PD        0.421407    0.347049    0.212072     0.005394
NI374   NI        0.402242    0.367685    0.177879     0.004307
NI375   NI        0.443737    0.348106    0.152403     0.004307
PD376   PD        0.436028    0.386954    0.210231     0.005394
NI377   NI        0.474129    0.359296    0.191714     0.004307
PD378   PD        0.494377    0.382045    0.172652     0.005394
PD379   PD        0.528089    0.350351    0.168779     0.005394
NI380   NI        0.520555    0.390114    0.192881     0.004307
PD381   PD        0.571573    0.339354    0.197339     0.005394
PD382   PD        0.565904    0.382809    0.171103     0.005394
NI383   NI        0.607574    0.339858    0.160895     0.004307
PD384   PD        0.607652    0.374203    0.194686     0.005394
PD385   PD        0.645166    0.341521    0.193257     0.005394
NI386   NI        0.626792    0.396308    0.167339     0.004307
NI387   NI        0.680941    0.340870    0.158590     0.004307
NI388   NI        0.686981    0.406491    0.200221     0.004307
NI389   NI        0.719347    0.342879    0.193520     0.004307
NI390   NI        0.716763    0.376449    0.157176     0.004307
NI391   NI        0.752817    0.342942    0.158620     0.004307
NI392   NI        0.753810    0.378170    0.189958     0.004307
NI393   NI        0.819957    0.347439    0.170817     0.004307
NI394   NI        0.785403    0.383125    0.170239     0.004307
NI395   NI        0.842757    0.374405    0.236362     0.004307
NI396   NI        0.085940    0.416060    0.239787     0.004307
NI397   NI        0.108385    0.434909    0.193411     0.004307
NI398   NI        0.133961    0.456205    0.162336     0.004307
NI399   NI        0.159006    0.415462    0.171002     0.004307
NI400   NI        0.170968    0.467209    0.192972     0.004307
PD401   PD        0.197069    0.416069    0.203472     0.005394
PD402   PD        0.197479    0.450328    0.169852     0.005394
NI403   NI        0.220137    0.401670    0.175382     0.004307
PD404   PD        0.233530    0.450935    0.202469     0.005394
PD405   PD        0.269735    0.416647    0.204149     0.005394
NI406   NI        0.265860    0.463187    0.144359     0.004307
NI407   NI        0.287824    0.425082    0.161155     0.004307
NI408   NI        0.320668    0.449670    0.198423     0.004307
PD409   PD        0.310305    0.417215    0.171206     0.005394
NI410   NI        0.359708    0.445304    0.149637     0.004307
PD411   PD        0.383516    0.416027    0.171943     0.005394
PD412   PD        0.383616    0.454851    0.203178     0.005394
PD413   PD        0.416345    0.416890    0.206174     0.005394
NI414   NI        0.399213    0.426459    0.164955     0.004307
PD415   PD        0.494128    0.416897    0.136453     0.005394
PD416   PD        0.455264    0.453987    0.203261     0.005394
PD417   PD        0.476072    0.411534    0.196383     0.005394
NI418   NI        0.496000    0.435315    0.185681     0.004307
PD419   PD        0.528011    0.417022    0.171633     0.005394
NI420   NI        0.547437    0.465021    0.201963     0.004307
NI421   NI        0.572672    0.410090    0.194353     0.004307
NI422   NI        0.572811    0.455866    0.173328     0.004307
PD423   PD        0.600603    0.417396    0.170294     0.005394
PD424   PD        0.601477    0.451404    0.206030     0.005394
PD425   PD        0.638687    0.419367    0.205609     0.005394
NI426   NI        0.643224    0.442005    0.156755     0.004307
NI427   NI        0.679775    0.409382    0.157269     0.004307
PD428   PD        0.676707    0.451826    0.204433     0.005394
NI429   NI        0.717383    0.410539    0.191210     0.004307
NI430   NI        0.713897    0.451835    0.169971     0.004307
NI431   NI        0.764344    0.424394    0.173826     0.004307
NI432   NI        0.748001    0.451331    0.204638     0.004307
NI433   NI        0.793064    0.416418    0.213469     0.004307
NI434   NI        0.786128    0.449934    0.168816     0.004307
NI435   NI        0.821286    0.448246    0.204057     0.004307
NI436   NI        0.122655    0.485084    0.204565     0.004307
NI437   NI        0.187704    0.459338    0.163303     0.004307
NI438   NI        0.117441    0.551495    0.204964     0.004307
PD439   PD        0.195433    0.483915    0.204026     0.005394
NI440   NI        0.196311    0.516733    0.170203     0.004307
NI441   NI        0.230523    0.484405    0.169632     0.004307
NI442   NI        0.215016    0.545193    0.215234     0.004307
NI443   NI        0.274664    0.452493    0.172159     0.004307
NI444   NI        0.232604    0.547919    0.172093     0.004307
PD445   PD        0.308297    0.486466    0.170790     0.005394
PD446   PD        0.303763    0.521642    0.200215     0.005394
PD447   PD        0.346049    0.486778    0.206092     0.005394
PD448   PD        0.341583    0.519309    0.169839     0.005394
PD449   PD        0.379275    0.487419    0.168174     0.005394
PD450   PD        0.381598    0.520165    0.205963     0.005394
PD451   PD        0.417586    0.487254    0.204281     0.005394
NI452   NI        0.418916    0.534375    0.149663     0.004307
PD453   PD        0.456243    0.488718    0.168961     0.005394
PD454   PD        0.455332    0.521148    0.204372     0.005394
PD455   PD        0.475044    0.478662    0.183550     0.005394
PD456   PD        0.494748    0.520388    0.170863     0.005394
PD457   PD        0.527179    0.485777    0.171530     0.005394
PD458   PD        0.531732    0.520314    0.203016     0.005394
PD459   PD        0.565299    0.481567    0.200427     0.005394
PD460   PD        0.568207    0.521918    0.170619     0.005394
PD461   PD        0.604331    0.488552    0.168284     0.005394
PD462   PD        0.604377    0.521804    0.202216     0.005394
NI463   NI        0.637341    0.475072    0.189067     0.004307
NI464   NI        0.642233    0.518910    0.171244     0.004307
NI465   NI        0.670828    0.472153    0.154948     0.004307
PD466   PD        0.716336    0.522159    0.238157     0.005394
PD467   PD        0.713367    0.486727    0.204569     0.005394
NI468   NI        0.713842    0.520271    0.170503     0.004307
NI469   NI        0.751100    0.485968    0.169309     0.004307
NI470   NI        0.751300    0.520072    0.202453     0.004307
NI471   NI        0.788702    0.484441    0.206156     0.004307
NI472   NI        0.125234    0.548547    0.200798     0.004307
NI473   NI        0.161239    0.533545    0.149880     0.004307
NI474   NI        0.155743    0.587166    0.202892     0.004307
NI475   NI        0.197349    0.551200    0.204843     0.004307
NI476   NI        0.188864    0.564677    0.175674     0.004307
NI477   NI        0.225622    0.552491    0.166542     0.004307
NI478   NI        0.229264    0.586355    0.200408     0.004307
PD479   PD        0.271311    0.555604    0.205821     0.005394
NI480   NI        0.267883    0.581958    0.168919     0.004307
PD481   PD        0.307534    0.554432    0.169593     0.005394
PD482   PD        0.310172    0.586637    0.203639     0.005394
PD483   PD        0.338662    0.555095    0.196341     0.005394
NI484   NI        0.335146    0.588566    0.161870     0.004307
NI485   NI        0.372694    0.557494    0.162040     0.004307
PD486   PD        0.373635    0.591173    0.193650     0.005394
NI487   NI        0.411935    0.558226    0.191547     0.004307
NI488   NI        0.409236    0.591866    0.157937     0.004307
PD489   PD        0.458481    0.554740    0.170592     0.005394
PD490   PD        0.459875    0.587341    0.202857     0.005394
PD491   PD        0.496019    0.554169    0.203505     0.005394
PD492   PD        0.493867    0.586689    0.169537     0.005394
PD493   PD        0.533038    0.555850    0.168745     0.005394
PD494   PD        0.530417    0.590203    0.203384     0.005394
PD495   PD        0.568071    0.558192    0.202811     0.005394
PD496   PD        0.568390    0.590718    0.167486     0.005394
NI497   NI        0.616071    0.573536    0.148714     0.004307
PD498   PD        0.606351    0.591249    0.203211     0.005394
PD499   PD        0.642362    0.552874    0.204447     0.005394
NI500   NI        0.617436    0.545428    0.183678     0.004307
NI501   NI        0.680453    0.556270    0.169658     0.004307
NI502   NI        0.677489    0.586745    0.206462     0.004307
PD503   PD        0.714727    0.555063    0.203640     0.005394
NI504   NI        0.717122    0.589625    0.169261     0.004307
NI505   NI        0.751202    0.553571    0.168510     0.004307
NI506   NI        0.751235    0.590182    0.203123     0.004307
NI507   NI        0.773951    0.561594    0.182587     0.004307
NI508   NI        0.198349    0.622055    0.202098     0.004307
NI509   NI        0.230083    0.621794    0.168983     0.004307
NI510   NI        0.229874    0.657052    0.203339     0.004307
NI511   NI        0.265832    0.640075    0.207687     0.004307
NI512   NI        0.269588    0.655650    0.166596     0.004307
NI513   NI        0.330127    0.669191    0.191355     0.004307
NI514   NI        0.305577    0.630073    0.191195     0.004307
NI515   NI        0.336854    0.623655    0.195668     0.004307
NI516   NI        0.341774    0.654418    0.168635     0.004307
NI517   NI        0.383874    0.622617    0.168055     0.004307
NI518   NI        0.367707    0.647151    0.186509     0.004307
NI519   NI        0.408794    0.624885    0.192016     0.004307
NI520   NI        0.422219    0.659475    0.169367     0.004307
NI521   NI        0.427575    0.639241    0.179875     0.004307
NI522   NI        0.442379    0.663125    0.188953     0.004307
PD523   PD        0.495229    0.622652    0.202882     0.005394
NI524   NI        0.480105    0.665112    0.153129     0.004307
PD525   PD        0.530884    0.624119    0.168361     0.005394
PD526   PD        0.532911    0.657054    0.203092     0.005394
PD527   PD        0.569891    0.625610    0.203008     0.005394
NI528   NI        0.567870    0.658778    0.168862     0.004307
PD529   PD        0.606129    0.623871    0.167697     0.005394
NI530   NI        0.580386    0.670553    0.191432     0.004307
NI531   NI        0.642288    0.624935    0.202308     0.004307
NI532   NI        0.636717    0.692403    0.139800     0.004307
NI533   NI        0.687664    0.621484    0.152032     0.004307
NI534   NI        0.679854    0.659417    0.203279     0.004307
NI535   NI        0.680722    0.593504    0.201581     0.004307
NI536   NI        0.270372    0.687913    0.202760     0.004307
NI537   NI        0.297965    0.690415    0.168127     0.004307
NI538   NI        0.314136    0.714186    0.201760     0.004307
NI539   NI        0.339416    0.689824    0.201867     0.004307
NI540   NI        0.350331    0.691778    0.199700     0.004307
NI541   NI        0.384377    0.725610    0.201644     0.004307
NI542   NI        0.406180    0.694950    0.192967     0.004307
NI543   NI        0.419546    0.722309    0.169293     0.004307
NI544   NI        0.454730    0.696959    0.196025     0.004307
NI545   NI        0.471111    0.734231    0.210262     0.004307
NI546   NI        0.494197    0.691890    0.202284     0.004307
NI547   NI        0.494645    0.726469    0.169628     0.004307
NI548   NI        0.493467    0.682362    0.206460     0.004307
NI549   NI        0.528854    0.725939    0.204169     0.004307
NI550   NI        0.590940    0.664723    0.195789     0.004307
NI551   NI        0.641578    0.727517    0.168792     0.004307
NI552   NI        0.641224    0.692183    0.202552     0.004307
NI553   NI        0.633753    0.685818    0.198596     0.004307
NI554   NI        0.387974    0.760163    0.169356     0.004307
NI555   NI        0.501771    0.746958    0.241272     0.004307
NI556   NI        0.367125    0.058013    0.261211     0.004307
NI557   NI        0.452347    0.037854    0.271815     0.004307
NI558   NI        0.527243    0.038005    0.271428     0.004307
NI559   NI        0.216842    0.072579    0.282424     0.004307
NI560   NI        0.267975    0.070387    0.272577     0.004307
NI561   NI        0.286996    0.078654    0.227543     0.004307
NI562   NI        0.285625    0.099792    0.266356     0.004307
NI563   NI        0.343149    0.070638    0.273857     0.004307
NI564   NI        0.315906    0.118297    0.234636     0.004307
NI565   NI        0.379740    0.071234    0.236449     0.004307
NI566   NI        0.378433    0.104268    0.272323     0.004307
NI567   NI        0.415474    0.070772    0.272263     0.004307
NI568   NI        0.415200    0.107499    0.238888     0.004307
NI569   NI        0.446529    0.046294    0.267092     0.004307
NI570   NI        0.458417    0.111525    0.273910     0.004307
NI571   NI        0.489404    0.071468    0.271530     0.004307
NI572   NI        0.491746    0.106675    0.238005     0.004307
NI573   NI        0.525737    0.072400    0.240610     0.004307
NI574   NI        0.527049    0.108510    0.271764     0.004307
NI575   NI        0.562933    0.083935    0.271547     0.004307
NI576   NI        0.564629    0.107255    0.237235     0.004307
NI577   NI        0.610183    0.094045    0.252504     0.004307
NI578   NI        0.638637    0.075827    0.271761     0.004307
NI579   NI        0.638553    0.109709    0.237752     0.004307
NI580   NI        0.674622    0.110867    0.272099     0.004307
NI581   NI        0.156412    0.175723    0.275306     0.004307
NI582   NI        0.168327    0.153951    0.266188     0.004307
NI583   NI        0.196796    0.177242    0.239420     0.004307
NI584   NI        0.230830    0.139672    0.238026     0.004307
NI585   NI        0.231459    0.176703    0.273334     0.004307
NI586   NI        0.291781    0.146387    0.266500     0.004307
NI587   NI        0.283131    0.198704    0.224592     0.004307
NI588   NI        0.305929    0.123621    0.230388     0.004307
NI589   NI        0.275579    0.181852    0.240645     0.004307
PD590   PD        0.341082    0.139264    0.271558     0.005394
NI591   NI        0.330846    0.164203    0.217728     0.004307
NI592   NI        0.379594    0.139065    0.237970     0.004307
PD593   PD        0.379032    0.172598    0.271615     0.005394
PD594   PD        0.415282    0.139993    0.271502     0.005394
PD595   PD        0.416904    0.174510    0.238747     0.005394
PD596   PD        0.454383    0.139872    0.237246     0.005394
PD597   PD        0.452560    0.174627    0.272722     0.005394
PD598   PD        0.488434    0.139870    0.271489     0.005394
NI599   NI        0.465675    0.161516    0.245451     0.004307
NI600   NI        0.501755    0.128714    0.224945     0.004307
PD601   PD        0.525130    0.174893    0.271590     0.005394
NI602   NI        0.571872    0.127200    0.252967     0.004307
NI603   NI        0.560863    0.193821    0.264358     0.004307
NI604   NI        0.581501    0.126406    0.224381     0.004307
NI605   NI        0.588018    0.171778    0.252020     0.004307
NI606   NI        0.662493    0.142780    0.261538     0.004307
NI607   NI        0.638795    0.178100    0.239408     0.004307
NI608   NI        0.675480    0.143053    0.236111     0.004307
NI609   NI        0.674859    0.177869    0.274712     0.004307
NI610   NI        0.712913    0.141885    0.271820     0.004307
NI611   NI        0.714908    0.178307    0.244858     0.004307
NI612   NI        0.759946    0.169554    0.242629     0.004307
NI613   NI        0.085266    0.245429    0.271419     0.004307
NI614   NI        0.120672    0.210537    0.275427     0.004307
NI615   NI        0.121279    0.243791    0.237964     0.004307
NI616   NI        0.157947    0.209667    0.238632     0.004307
NI617   NI        0.158942    0.243675    0.273789     0.004307
NI618   NI        0.237879    0.211563    0.241701     0.004307
NI619   NI        0.195445    0.241875    0.237949     0.004307
NI620   NI        0.229857    0.208260    0.237037     0.004307
NI621   NI        0.220688    0.233416    0.292990     0.004307
NI622   NI        0.266963    0.175470    0.237437     0.004307
PD623   PD        0.269376    0.241266    0.237509     0.005394
NI624   NI        0.341447    0.213106    0.212470     0.004307
PD625   PD        0.304883    0.241793    0.273926     0.005394
PD626   PD        0.341736    0.208775    0.272127     0.005394
PD627   PD        0.341905    0.243931    0.240225     0.005394
PD628   PD        0.380179    0.209007    0.238334     0.005394
PD629   PD        0.380380    0.243569    0.272764     0.005394
NI630   NI        0.425615    0.218657    0.242120     0.004307
NI631   NI        0.426348    0.219705    0.253429     0.004307
PD632   PD        0.450827    0.209584    0.237746     0.005394
PD633   PD        0.453315    0.240375    0.272635     0.005394
NI634   NI        0.508849    0.194867    0.266307     0.004307
PD635   PD        0.489706    0.244081    0.240652     0.005394
PD636   PD        0.526681    0.209791    0.238184     0.005394
NI637   NI        0.535841    0.233987    0.256602     0.004307
PD638   PD        0.559992    0.210438    0.270799     0.005394
NI639   NI        0.554938    0.244281    0.230945     0.004307
NI640   NI        0.597902    0.214384    0.238661     0.004307
NI641   NI        0.601306    0.238807    0.276095     0.004307
NI642   NI        0.649438    0.206138    0.264406     0.004307
NI643   NI        0.646647    0.240543    0.229748     0.004307
NI644   NI        0.686016    0.207871    0.230058     0.004307
NI645   NI        0.672972    0.218073    0.254078     0.004307
NI646   NI        0.721246    0.207582    0.266537     0.004307
NI647   NI        0.721727    0.241418    0.231265     0.004307
NI648   NI        0.746991    0.214587    0.236077     0.004307
NI649   NI        0.748107    0.246071    0.273981     0.004307
NI650   NI        0.756815    0.217528    0.236764     0.004307
NI651   NI        0.750516    0.236703    0.192576     0.004307
NI652   NI        0.800180    0.240949    0.265974     0.004307
NI653   NI        0.063256    0.322272    0.284541     0.004307
PD654   PD        0.123708    0.279741    0.273049     0.005394
NI655   NI        0.122307    0.312408    0.239773     0.004307
PD656   PD        0.157849    0.278189    0.238680     0.005394
PD657   PD        0.158935    0.313854    0.271825     0.005394
PD658   PD        0.198389    0.278288    0.271911     0.005394
PD659   PD        0.195671    0.313153    0.238984     0.005394
PD660   PD        0.231844    0.278309    0.237579     0.005394
PD661   PD        0.233272    0.312403    0.275402     0.005394
PD662   PD        0.267346    0.278641    0.273092     0.005394
PD663   PD        0.267674    0.311585    0.238557     0.005394
PD664   PD        0.308254    0.278134    0.241984     0.005394
PD665   PD        0.307156    0.313574    0.273882     0.005394
PD666   PD        0.325042    0.284303    0.287212     0.005394
NI667   NI        0.357349    0.306841    0.215640     0.004307
NI668   NI        0.379877    0.256331    0.209169     0.004307
PD669   PD        0.362232    0.305887    0.261286     0.005394
PD670   PD        0.413976    0.276736    0.273817     0.005394
NI671   NI        0.387285    0.317915    0.225110     0.004307
NI672   NI        0.454296    0.248883    0.219545     0.004307
PD673   PD        0.452110    0.310902    0.274927     0.005394
PD674   PD        0.488358    0.277619    0.276108     0.005394
NI675   NI        0.508511    0.319841    0.221266     0.004307
NI676   NI        0.519406    0.273100    0.236339     0.004307
PD677   PD        0.525544    0.331448    0.285167     0.005394
PD678   PD        0.574860    0.274762    0.263440     0.005394
PD679   PD        0.574401    0.305484    0.231547     0.005394
NI680   NI        0.610980    0.272865    0.229059     0.004307
PD681   PD        0.595900    0.316808    0.272070     0.005394
NI682   NI        0.646025    0.275736    0.264056     0.004307
PD683   PD        0.646306    0.308657    0.229359     0.005394
NI684   NI        0.683789    0.275175    0.230288     0.004307
PD685   PD        0.683775    0.311034    0.262103     0.005394
NI686   NI        0.710644    0.281812    0.276125     0.004307
NI687   NI        0.723537    0.339859    0.254888     0.004307
NI688   NI        0.758171    0.275362    0.227022     0.004307
NI689   NI        0.748642    0.312685    0.272930     0.004307
NI690   NI        0.783965    0.281587    0.273528     0.004307
NI691   NI        0.765086    0.312039    0.231165     0.004307
NI692   NI        0.822616    0.315069    0.272108     0.004307
NI693   NI        0.047406    0.349806    0.272609     0.004307
NI694   NI        0.094104    0.345508    0.221630     0.004307
NI695   NI        0.086688    0.381724    0.275471     0.004307
NI696   NI        0.106415    0.322438    0.261477     0.004307
NI697   NI        0.121869    0.381053    0.240299     0.004307
NI698   NI        0.172479    0.324554    0.226371     0.004307
NI699   NI        0.114121    0.377748    0.250317     0.004307
PD700   PD        0.198537    0.348233    0.271610     0.005394
PD701   PD        0.197553    0.381920    0.238006     0.005394
PD702   PD        0.233557    0.347566    0.237472     0.005394
PD703   PD        0.234050    0.382093    0.270783     0.005394
NI704   NI        0.247194    0.355856    0.259933     0.004307
PD705   PD        0.269759    0.383679    0.239629     0.005394
PD706   PD        0.308490    0.349298    0.239950     0.005394
PD707   PD        0.308815    0.379610    0.273472     0.005394
PD708   PD        0.342067    0.346461    0.276833     0.005394
PD709   PD        0.346286    0.382348    0.239965     0.005394
PD710   PD        0.376893    0.347324    0.244479     0.005394
PD711   PD        0.379838    0.381781    0.276359     0.005394
PD712   PD        0.416465    0.349049    0.274578     0.005394
PD713   PD        0.396187    0.380990    0.243642     0.005394
PD714   PD        0.462596    0.337102    0.233004     0.005394
PD715   PD        0.457015    0.381910    0.273348     0.005394
PD716   PD        0.489711    0.345759    0.271875     0.005394
PD717   PD        0.506664    0.362763    0.229438     0.005394
NI718   NI        0.542718    0.348922    0.201420     0.004307
PD719   PD        0.524386    0.382206    0.273269     0.005394
PD720   PD        0.567309    0.356014    0.277542     0.005394
PD721   PD        0.572337    0.373049    0.232847     0.005394
PD722   PD        0.609500    0.341755    0.229716     0.005394
PD723   PD        0.610251    0.377624    0.262793     0.005394
PD724   PD        0.635145    0.349888    0.272892     0.005394
PD725   PD        0.645837    0.376798    0.227592     0.005394
PD726   PD        0.674500    0.350941    0.241993     0.005394
PD727   PD        0.683003    0.377669    0.261211     0.005394
NI728   NI        0.719483    0.344008    0.261724     0.004307
NI729   NI        0.719483    0.376921    0.226682     0.004307
NI730   NI        0.756140    0.344428    0.224767     0.004307
NI731   NI        0.755220    0.379159    0.259728     0.004307
NI732   NI        0.786373    0.348375    0.274800     0.004307
NI733   NI        0.793794    0.369261    0.229044     0.004307
NI734   NI        0.823495    0.331826    0.242981     0.004307
NI735   NI        0.801085    0.377460    0.275474     0.004307
NI736   NI        0.858961    0.347883    0.274210     0.004307
NI737   NI        0.042052    0.431730    0.264271     0.004307
NI738   NI        0.070531    0.386422    0.229102     0.004307
NI739   NI        0.088831    0.453405    0.268685     0.004307
PD740   PD        0.123900    0.416669    0.271567     0.005394
NI741   NI        0.122336    0.452089    0.238231     0.004307
NI742   NI        0.146781    0.405378    0.228693     0.004307
NI743   NI        0.126809    0.446187    0.246143     0.004307
PD744   PD        0.198109    0.417569    0.272005     0.005394
PD745   PD        0.198521    0.450779    0.236954     0.005394
PD746   PD        0.234012    0.417419    0.237907     0.005394
PD747   PD        0.234062    0.451631    0.271752     0.005394
PD748   PD        0.251089    0.406598    0.284595     0.005394
NI749   NI        0.253630    0.430334    0.240457     0.004307
PD750   PD        0.295434    0.410642    0.261221     0.005394
PD751   PD        0.303466    0.450556    0.284659     0.005394
PD752   PD        0.342636    0.416405    0.277249     0.005394
PD753   PD        0.345322    0.450294    0.236965     0.005394
PD754   PD        0.381373    0.420311    0.237298     0.005394
PD755   PD        0.379431    0.449704    0.271280     0.005394
PD756   PD        0.421388    0.418408    0.271178     0.005394
PD757   PD        0.418224    0.451510    0.237756     0.005394
PD758   PD        0.457642    0.418859    0.238410     0.005394
PD759   PD        0.471681    0.426628    0.273645     0.005394
PD760   PD        0.491725    0.419838    0.272939     0.005394
NI761   NI        0.497897    0.442485    0.235123     0.004307
PD762   PD        0.528515    0.419211    0.241084     0.005394
PD763   PD        0.530909    0.454997    0.271895     0.005394
PD764   PD        0.572479    0.411699    0.261864     0.005394
PD765   PD        0.591336    0.445615    0.219043     0.005394
PD766   PD        0.603014    0.417734    0.239888     0.005394
PD767   PD        0.609580    0.444173    0.262484     0.005394
PD768   PD        0.647703    0.411766    0.259554     0.005394
PD769   PD        0.641848    0.443637    0.226747     0.005394
PD770   PD        0.681747    0.410203    0.226988     0.005394
NI771   NI        0.660178    0.430832    0.265327     0.004307
NI772   NI        0.719607    0.411961    0.259686     0.004307
NI773   NI        0.725186    0.477382    0.250805     0.004307
NI774   NI        0.750888    0.416368    0.238711     0.004307
NI775   NI        0.758030    0.443374    0.256701     0.004307
NI776   NI        0.795269    0.409403    0.259837     0.004307
NI777   NI        0.787466    0.453094    0.238559     0.004307
NI778   NI        0.822928    0.415709    0.237834     0.004307
NI779   NI        0.824902    0.451715    0.272442     0.004307
NI780   NI        0.860408    0.416254    0.271191     0.004307
NI781   NI        0.049776    0.484952    0.275438     0.004307
NI782   NI        0.087149    0.485533    0.238860     0.004307
NI783   NI        0.085052    0.518037    0.275683     0.004307
PD784   PD        0.122095    0.485114    0.273310     0.005394
NI785   NI        0.122305    0.518410    0.240167     0.004307
PD786   PD        0.161467    0.485336    0.237563     0.005394
PD787   PD        0.160478    0.518918    0.272902     0.005394
PD788   PD        0.197655    0.484484    0.270674     0.005394
PD789   PD        0.193750    0.519796    0.235671     0.005394
NI790   NI        0.221259    0.460379    0.263139     0.004307
PD791   PD        0.234951    0.521791    0.273066     0.005394
PD792   PD        0.271030    0.485239    0.270492     0.005394
PD793   PD        0.272327    0.520921    0.235473     0.005394
PD794   PD        0.310098    0.485884    0.237811     0.005394
PD795   PD        0.308873    0.521825    0.272173     0.005394
PD796   PD        0.345593    0.486315    0.273261     0.005394
PD797   PD        0.340797    0.523242    0.231544     0.005394
PD798   PD        0.365021    0.459788    0.243787     0.005394
PD799   PD        0.385989    0.517015    0.273343     0.005394
PD800   PD        0.420503    0.485976    0.271960     0.005394
PD801   PD        0.420551    0.520690    0.239619     0.005394
PD802   PD        0.456469    0.487802    0.237199     0.005394
PD803   PD        0.456169    0.519998    0.271820     0.005394
PD804   PD        0.493862    0.486079    0.271004     0.005394
PD805   PD        0.494098    0.519886    0.237917     0.005394
PD806   PD        0.531286    0.486000    0.237088     0.005394
PD807   PD        0.530995    0.523109    0.270463     0.005394
PD808   PD        0.567618    0.489017    0.273791     0.005394
NI809   NI        0.572763    0.516877    0.230788     0.004307
PD810   PD        0.604519    0.487342    0.239071     0.005394
NI811   NI        0.611483    0.522386    0.246666     0.004307
PD812   PD        0.639753    0.489250    0.271237     0.005394
PD813   PD        0.642939    0.519818    0.239381     0.005394
PD814   PD        0.678355    0.488172    0.238380     0.005394
PD815   PD        0.678117    0.523571    0.272469     0.005394
NI816   NI        0.706847    0.486673    0.264168     0.004307
NI817   NI        0.714578    0.513026    0.219575     0.004307
PD818   PD        0.751247    0.487117    0.237660     0.005394
PD819   PD        0.750642    0.519989    0.271467     0.005394
NI820   NI        0.803613    0.465293    0.242738     0.004307
NI821   NI        0.786939    0.520377    0.237376     0.004307
NI822   NI        0.837939    0.458679    0.229919     0.004307
NI823   NI        0.836644    0.495290    0.260199     0.004307
NI824   NI        0.860940    0.484906    0.271183     0.004307
NI825   NI        0.110429    0.597194    0.279256     0.004307
NI826   NI        0.122752    0.555159    0.276809     0.004307
NI827   NI        0.112074    0.594006    0.201776     0.004307
NI828   NI        0.156826    0.552479    0.235670     0.004307
PD829   PD        0.159200    0.588916    0.270285     0.005394
PD830   PD        0.193727    0.553668    0.271563     0.005394
NI831   NI        0.186311    0.608082    0.249418     0.004307
PD832   PD        0.232023    0.554099    0.234958     0.005394
PD833   PD        0.230686    0.589968    0.269576     0.005394
PD834   PD        0.271353    0.554133    0.269762     0.005394
NI835   NI        0.271392    0.582333    0.244873     0.004307
PD836   PD        0.308012    0.553022    0.234244     0.005394
PD837   PD        0.307398    0.586647    0.270583     0.005394
PD838   PD        0.345917    0.551999    0.270370     0.005394
PD839   PD        0.344358    0.588940    0.237343     0.005394
PD840   PD        0.383692    0.552798    0.238568     0.005394
PD841   PD        0.384079    0.590822    0.267922     0.005394
PD842   PD        0.420194    0.554394    0.273008     0.005394
PD843   PD        0.416104    0.583089    0.236841     0.005394
PD844   PD        0.472301    0.539305    0.244036     0.005394
PD845   PD        0.459466    0.589568    0.272103     0.005394
PD846   PD        0.502988    0.571602    0.268385     0.005394
NI847   NI        0.478466    0.603374    0.231251     0.004307
PD848   PD        0.532298    0.555718    0.236563     0.005394
PD849   PD        0.531311    0.590921    0.271384     0.005394
PD850   PD        0.569504    0.557201    0.271191     0.005394
PD851   PD        0.567365    0.589013    0.238283     0.005394
PD852   PD        0.605188    0.555942    0.237326     0.005394
NI853   NI        0.593993    0.599972    0.249271     0.004307
PD854   PD        0.640521    0.556356    0.270950     0.005394
PD855   PD        0.641930    0.590403    0.237137     0.005394
NI856   NI        0.687780    0.571129    0.214505     0.004307
NI857   NI        0.634164    0.604543    0.270266     0.004307
PD858   PD        0.715928    0.557295    0.271998     0.005394
PD859   PD        0.716545    0.590608    0.236469     0.005394
NI860   NI        0.736735    0.551735    0.214105     0.004307
PD861   PD        0.751880    0.590345    0.271161     0.005394
NI862   NI        0.799807    0.573937    0.263808     0.004307
NI863   NI        0.781060    0.615905    0.269476     0.004307
NI864   NI        0.829286    0.608609    0.257165     0.004307
NI865   NI        0.105418    0.642203    0.262714     0.004307
NI866   NI        0.148992    0.661458    0.234243     0.004307
NI867   NI        0.156931    0.657375    0.270625     0.004307
NI868   NI        0.195014    0.621650    0.269961     0.004307
NI869   NI        0.192552    0.644822    0.253337     0.004307
PD870   PD        0.232414    0.620936    0.237453     0.005394
PD871   PD        0.233026    0.655314    0.269896     0.005394
PD872   PD        0.270694    0.623081    0.270362     0.005394
NI873   NI        0.277535    0.674912    0.253167     0.004307
PD874   PD        0.303076    0.623259    0.231565     0.005394
PD875   PD        0.306021    0.657092    0.269923     0.005394
PD876   PD        0.345406    0.624030    0.270550     0.005394
PD877   PD        0.343818    0.656604    0.236808     0.005394
NI878   NI        0.376857    0.625536    0.227696     0.004307
NI879   NI        0.374706    0.649691    0.268342     0.004307
PD880   PD        0.420584    0.622003    0.271390     0.005394
NI881   NI        0.416054    0.654144    0.232450     0.004307
NI882   NI        0.449202    0.627559    0.222406     0.004307
PD883   PD        0.458416    0.657619    0.270888     0.005394
PD884   PD        0.492888    0.624307    0.272220     0.005394
NI885   NI        0.482299    0.664365    0.222109     0.004307
NI886   NI        0.520142    0.633382    0.215242     0.004307
PD887   PD        0.529118    0.659415    0.273179     0.005394
NI888   NI        0.563605    0.601197    0.284751     0.004307
PD889   PD        0.569069    0.659740    0.237390     0.005394
PD890   PD        0.604679    0.625112    0.237392     0.005394
PD891   PD        0.607146    0.660179    0.271474     0.005394
PD892   PD        0.641934    0.625083    0.270365     0.005394
PD893   PD        0.643651    0.659510    0.237776     0.005394
PD894   PD        0.678297    0.625480    0.237666     0.005394
NI895   NI        0.654543    0.645441    0.262787     0.004307
PD896   PD        0.714787    0.623987    0.271991     0.005394
NI897   NI        0.717713    0.658152    0.238750     0.004307
NI898   NI        0.751309    0.624538    0.236367     0.004307
NI899   NI        0.753645    0.657600    0.271278     0.004307
NI900   NI        0.789223    0.623273    0.272176     0.004307
NI901   NI        0.165101    0.705180    0.261947     0.004307
NI902   NI        0.234078    0.693000    0.237859     0.004307
NI903   NI        0.235864    0.725011    0.268554     0.004307
NI904   NI        0.251291    0.701367    0.282100     0.004307
NI905   NI        0.282150    0.738061    0.284271     0.004307
NI906   NI        0.291892    0.685767    0.248257     0.004307
NI907   NI        0.316336    0.741341    0.249382     0.004307
PD908   PD        0.346982    0.692119    0.269859     0.005394
NI909   NI        0.333825    0.747868    0.229611     0.004307
NI910   NI        0.394904    0.707132    0.234292     0.004307
NI911   NI        0.379721    0.725408    0.266170     0.004307
PD912   PD        0.420374    0.691316    0.271089     0.005394
NI913   NI        0.419706    0.726238    0.238074     0.004307
NI914   NI        0.433559    0.669441    0.232618     0.004307
PD915   PD        0.455646    0.726367    0.272216     0.005394
NI916   NI        0.527320    0.718885    0.271720     0.004307
NI917   NI        0.481391    0.720099    0.258106     0.004307
PD918   PD        0.530799    0.691892    0.236919     0.005394
PD919   PD        0.529267    0.727450    0.269866     0.005394
PD920   PD        0.569155    0.693511    0.271760     0.005394
NI921   NI        0.564946    0.726976    0.237587     0.004307
NI922   NI        0.596243    0.714700    0.204291     0.004307
PD923   PD        0.605520    0.727386    0.271529     0.005394
PD924   PD        0.642598    0.693254    0.272723     0.005394
NI925   NI        0.641272    0.727509    0.238533     0.004307
NI926   NI        0.701088    0.700171    0.217765     0.004307
NI927   NI        0.699145    0.717946    0.261619     0.004307
NI928   NI        0.740454    0.701952    0.286382     0.004307
NI929   NI        0.281149    0.772387    0.252407     0.004307
NI930   NI        0.369202    0.770939    0.257944     0.004307
NI931   NI        0.381345    0.750287    0.219362     0.004307
NI932   NI        0.381802    0.793114    0.271952     0.004307
PD933   PD        0.420664    0.759401    0.270932     0.005394
NI934   NI        0.456228    0.759041    0.238403     0.004307
NI935   NI        0.429432    0.805846    0.258823     0.004307
NI936   NI        0.493751    0.759978    0.271302     0.004307
NI937   NI        0.530163    0.761559    0.236775     0.004307
NI938   NI        0.549959    0.804833    0.256792     0.004307
NI939   NI        0.567799    0.761514    0.271869     0.004307
NI940   NI        0.641779    0.761440    0.272101     0.004307
NI941   NI        0.304609    0.036563    0.341023     0.004307
NI942   NI        0.341052    0.036667    0.306771     0.004307
NI943   NI        0.377418    0.036612    0.339555     0.004307
NI944   NI        0.413053    0.031830    0.327229     0.004307
NI945   NI        0.452868    0.036850    0.339776     0.004307
NI946   NI        0.490621    0.004860    0.274104     0.004307
NI947   NI        0.528294    0.038104    0.340693     0.004307
NI948   NI        0.562799    0.043659    0.301283     0.004307
NI949   NI        0.603203    0.040476    0.337970     0.004307
NI950   NI        0.192850    0.104802    0.308283     0.004307
NI951   NI        0.227744    0.128311    0.353669     0.004307
NI952   NI        0.268908    0.071511    0.342232     0.004307
NI953   NI        0.233723    0.106608    0.270952     0.004307
NI954   NI        0.343858    0.045172    0.302601     0.004307
PD955   PD        0.307471    0.104874    0.341635     0.005394
NI956   NI        0.342099    0.071466    0.341273     0.004307
NI957   NI        0.343160    0.106557    0.308642     0.004307
NI958   NI        0.378052    0.071641    0.306691     0.004307
PD959   PD        0.376545    0.104513    0.340859     0.005394
NI960   NI        0.417541    0.035295    0.375178     0.004307
PD961   PD        0.415357    0.105063    0.305906     0.005394
PD962   PD        0.453452    0.070634    0.305647     0.005394
PD963   PD        0.452485    0.105367    0.340957     0.005394
PD964   PD        0.490431    0.071725    0.340680     0.005394
PD965   PD        0.488513    0.105573    0.306025     0.005394
NI966   NI        0.528228    0.073891    0.304871     0.004307
NI967   NI        0.533206    0.101623    0.374771     0.004307
NI968   NI        0.564257    0.073721    0.340436     0.004307
NI969   NI        0.575408    0.097698    0.284223     0.004307
NI970   NI        0.592016    0.089630    0.321594     0.004307
NI971   NI        0.598009    0.106616    0.340967     0.004307
NI972   NI        0.602825    0.053661    0.328580     0.004307
NI973   NI        0.640704    0.138274    0.299904     0.004307
NI974   NI        0.674526    0.110797    0.341032     0.004307
NI975   NI        0.713851    0.110271    0.301868     0.004307
NI976   NI        0.105718    0.168596    0.285945     0.004307
NI977   NI        0.157123    0.140068    0.306691     0.004307
PD978   PD        0.155709    0.176382    0.342358     0.005394
NI979   NI        0.181806    0.160595    0.347237     0.004307
PD980   PD        0.194294    0.173247    0.307361     0.005394
NI981   NI        0.232420    0.139765    0.305407     0.004307
PD982   PD        0.230927    0.172789    0.340356     0.005394
PD983   PD        0.267911    0.139219    0.341678     0.005394
NI984   NI        0.266974    0.175560    0.308806     0.004307
NI985   NI        0.301644    0.136240    0.305938     0.004307
PD986   PD        0.305370    0.173796    0.341525     0.005394
PD987   PD        0.341737    0.139721    0.342319     0.005394
PD988   PD        0.341553    0.172461    0.306446     0.005394
NI989   NI        0.416487    0.146211    0.278094     0.004307
PD990   PD        0.377933    0.174695    0.340149     0.005394
PD991   PD        0.414315    0.137071    0.340013     0.005394
PD992   PD        0.414731    0.175185    0.307734     0.005394
NI993   NI        0.472199    0.145325    0.319106     0.004307
PD994   PD        0.450342    0.172108    0.340923     0.005394
PD995   PD        0.490227    0.142041    0.340092     0.005394
PD996   PD        0.489082    0.176557    0.306574     0.005394
NI997   NI        0.548452    0.137727    0.294275     0.004307
PD998   PD        0.525137    0.175263    0.340613     0.005394
PD999   PD        0.562710    0.142270    0.340202     0.005394
PD1000   PD        0.563141    0.177446    0.307037     0.005394
NI1001   NI        0.590399    0.142279    0.290653     0.004307
NI1002   NI        0.617910    0.185600    0.337445     0.004307
NI1003   NI        0.637155    0.143785    0.342198     0.004307
NI1004   NI        0.634282    0.160887    0.297912     0.004307
NI1005   NI        0.681446    0.144007    0.304651     0.004307
NI1006   NI        0.692857    0.175187    0.334173     0.004307
NI1007   NI        0.712372    0.143775    0.339647     0.004307
NI1008   NI        0.713712    0.181016    0.308480     0.004307
NI1009   NI        0.775112    0.159741    0.316529     0.004307
NI1010   NI        0.741321    0.161589    0.350610     0.004307
NI1011   NI        0.783622    0.179694    0.309463     0.004307
NI1012   NI        0.086730    0.246586    0.341615     0.004307
NI1013   NI        0.121415    0.212253    0.341854     0.004307
NI1014   NI        0.118105    0.214163    0.293979     0.004307
NI1015   NI        0.157229    0.211154    0.304929     0.004307
PD1016   PD        0.158267    0.244234    0.341991     0.005394
PD1017   PD        0.194389    0.208506    0.341032     0.005394
PD1018   PD        0.195336    0.242353    0.309536     0.005394
PD1019   PD        0.230010    0.207886    0.306876     0.005394
PD1020   PD        0.232028    0.242905    0.339183     0.005394
NI1021   NI        0.276694    0.209351    0.322609     0.004307
PD1022   PD        0.268062    0.242215    0.306890     0.005394
PD1023   PD        0.307266    0.208551    0.306337     0.005394
PD1024   PD        0.304292    0.241695    0.341488     0.005394
PD1025   PD        0.340741    0.206646    0.340172     0.005394
PD1026   PD        0.341244    0.242768    0.306998     0.005394
PD1027   PD        0.379633    0.207248    0.307712     0.005394
PD1028   PD        0.376782    0.239746    0.339717     0.005394
PD1029   PD        0.414873    0.208184    0.340749     0.005394
PD1030   PD        0.415318    0.242275    0.306844     0.005394
PD1031   PD        0.451178    0.206897    0.307467     0.005394
PD1032   PD        0.450708    0.242791    0.341773     0.005394
PD1033   PD        0.488732    0.208767    0.340932     0.005394
PD1034   PD        0.487255    0.243952    0.308843     0.005394
PD1035   PD        0.524476    0.211219    0.306659     0.005394
PD1036   PD        0.524178    0.243602    0.341377     0.005394
NI1037   NI        0.570322    0.195867    0.350710     0.004307
NI1038   NI        0.579985    0.238782    0.296746     0.004307
NI1039   NI        0.590987    0.191869    0.298049     0.004307
NI1040   NI        0.594112    0.230742    0.330892     0.004307
NI1041   NI        0.609620    0.228970    0.354072     0.004307
NI1042   NI        0.646094    0.241032    0.295793     0.004307
NI1043   NI        0.678970    0.208640    0.309443     0.004307
NI1044   NI        0.654799    0.219523    0.337899     0.004307
NI1045   NI        0.704526    0.194779    0.349267     0.004307
NI1046   NI        0.716089    0.234102    0.277847     0.004307
NI1047   NI        0.745910    0.212942    0.305925     0.004307
NI1048   NI        0.764007    0.238189    0.326957     0.004307
NI1049   NI        0.781345    0.214190    0.340008     0.004307
NI1050   NI        0.785615    0.247055    0.307538     0.004307
NI1051   NI        0.820593    0.246535    0.341865     0.004307
NI1052   NI        0.047562    0.245769    0.309381     0.004307
NI1053   NI        0.030667    0.299768    0.316205     0.004307
NI1054   NI        0.075009    0.288742    0.293570     0.004307
NI1055   NI        0.072005    0.327693    0.318748     0.004307
NI1056   NI        0.110901    0.301276    0.328239     0.004307
NI1057   NI        0.109903    0.322475    0.286161     0.004307
PD1058   PD        0.160377    0.280158    0.306799     0.005394
PD1059   PD        0.159669    0.311381    0.341384     0.005394
PD1060   PD        0.196101    0.277055    0.341116     0.005394
PD1061   PD        0.198530    0.312773    0.304966     0.005394
PD1062   PD        0.233864    0.280075    0.306983     0.005394
PD1063   PD        0.235165    0.313290    0.340055     0.005394
PD1064   PD        0.269301    0.279221    0.341206     0.005394
PD1065   PD        0.269963    0.313618    0.307009     0.005394
NI1066   NI        0.286972    0.286414    0.287950     0.004307
PD1067   PD        0.300141    0.312157    0.341693     0.005394
PD1068   PD        0.368865    0.262595    0.356842     0.005394
PD1069   PD        0.348991    0.310837    0.307680     0.005394
PD1070   PD        0.380977    0.280073    0.307900     0.005394
PD1071   PD        0.381254    0.309095    0.342940     0.005394
PD1072   PD        0.413428    0.276822    0.342175     0.005394
PD1073   PD        0.415154    0.310850    0.308090     0.005394
PD1074   PD        0.452203    0.281498    0.311026     0.005394
PD1075   PD        0.446077    0.301665    0.330643     0.005394
PD1076   PD        0.488919    0.278648    0.340779     0.005394
PD1077   PD        0.489928    0.312669    0.309660     0.005394
PD1078   PD        0.524045    0.278026    0.308896     0.005394
PD1079   PD        0.526051    0.312418    0.343093     0.005394
PD1080   PD        0.560819    0.280621    0.341061     0.005394
PD1081   PD        0.561708    0.315446    0.310387     0.005394
NI1082   NI        0.585142    0.276820    0.296539     0.004307
PD1083   PD        0.598947    0.315439    0.343486     0.005394
PD1084   PD        0.636359    0.281914    0.342419     0.005394
PD1085   PD        0.670929    0.281783    0.307223     0.005394
NI1086   NI        0.659584    0.294400    0.301643     0.004307
NI1087   NI        0.687249    0.312174    0.332380     0.004307
NI1088   NI        0.700944    0.300027    0.322058     0.004307
PD1089   PD        0.709892    0.315236    0.306572     0.005394
PD1090   PD        0.749376    0.281859    0.306964     0.005394
PD1091   PD        0.746474    0.316789    0.340181     0.005394
PD1092   PD        0.782140    0.282690    0.341930     0.005394
PD1093   PD        0.785261    0.315002    0.308886     0.005394
NI1094   NI        0.819953    0.280420    0.309633     0.004307
PD1095   PD        0.821854    0.314216    0.342208     0.005394
NI1096   NI        0.865408    0.272797    0.327301     0.004307
NI1097   NI        0.857580    0.315476    0.307194     0.004307
NI1098   NI        0.048486    0.349830    0.341949     0.004307
NI1099   NI        0.049107    0.382055    0.308638     0.004307
NI1100   NI        0.071499    0.327656    0.318777     0.004307
NI1101   NI        0.072760    0.409024    0.333763     0.004307
PD1102   PD        0.124541    0.349817    0.340784     0.005394
PD1103   PD        0.124080    0.382799    0.307513     0.005394
PD1104   PD        0.159782    0.347454    0.306050     0.005394
PD1105   PD        0.160831    0.381064    0.339743     0.005394
PD1106   PD        0.197346    0.347785    0.339364     0.005394
PD1107   PD        0.200152    0.381313    0.307335     0.005394
PD1108   PD        0.234487    0.348567    0.304825     0.005394
PD1109   PD        0.233273    0.384243    0.339329     0.005394
PD1110   PD        0.270587    0.348306    0.342419     0.005394
PD1111   PD        0.274461    0.381484    0.306946     0.005394
PD1112   PD        0.308828    0.347712    0.309152     0.005394
PD1113   PD        0.306797    0.381426    0.341159     0.005394
PD1114   PD        0.375805    0.351602    0.325259     0.005394
PD1115   PD        0.338427    0.378215    0.309002     0.005394
PD1116   PD        0.374797    0.321204    0.299070     0.005394
PD1117   PD        0.359213    0.358618    0.321155     0.005394
PD1118   PD        0.417309    0.348616    0.344576     0.005394
PD1119   PD        0.419988    0.384751    0.305204     0.005394
PD1120   PD        0.454538    0.347446    0.310077     0.005394
PD1121   PD        0.454019    0.380803    0.344127     0.005394
PD1122   PD        0.495902    0.351569    0.336223     0.005394
PD1123   PD        0.493056    0.376288    0.306804     0.005394
PD1124   PD        0.528204    0.348445    0.303502     0.005394
PD1125   PD        0.537050    0.383164    0.331194     0.005394
PD1126   PD        0.563704    0.348475    0.343733     0.005394
PD1127   PD        0.566921    0.361865    0.328587     0.005394
PD1128   PD        0.579818    0.361444    0.297914     0.005394
PD1129   PD        0.612083    0.360107    0.329123     0.005394
PD1130   PD        0.645962    0.337116    0.320409     0.005394
PD1131   PD        0.648426    0.378541    0.296277     0.005394
PD1132   PD        0.670504    0.341215    0.299321     0.005394
PD1133   PD        0.676355    0.383521    0.339889     0.005394
NI1134   NI        0.751347    0.363088    0.349689     0.004307
NI1135   NI        0.720079    0.378473    0.294702     0.004307
PD1136   PD        0.749463    0.350651    0.304183     0.005394
PD1137   PD        0.750035    0.384606    0.341269     0.005394
PD1138   PD        0.785496    0.349202    0.341269     0.005394
NI1139   NI        0.793025    0.374556    0.292282     0.004307
NI1140   NI        0.823356    0.348317    0.308219     0.004307
PD1141   PD        0.822155    0.383222    0.341097     0.005394
NI1142   NI        0.858695    0.348721    0.341891     0.004307
NI1143   NI        0.856688    0.418394    0.339502     0.004307
NI1144   NI        0.049593    0.416478    0.344322     0.004307
NI1145   NI        0.049629    0.478196    0.322611     0.004307
NI1146   NI        0.085916    0.449977    0.276653     0.004307
NI1147   NI        0.075335    0.439404    0.310827     0.004307
PD1148   PD        0.125672    0.418959    0.338071     0.005394
NI1149   NI        0.115633    0.419333    0.290219     0.004307
PD1150   PD        0.162375    0.417000    0.306733     0.005394
NI1151   NI        0.133335    0.438257    0.331734     0.004307
PD1152   PD        0.196824    0.417365    0.339255     0.005394
PD1153   PD        0.196581    0.450579    0.305611     0.005394
PD1154   PD        0.235755    0.416819    0.306182     0.005394
PD1155   PD        0.194081    0.413964    0.347950     0.005394
PD1156   PD        0.272521    0.419623    0.338965     0.005394
PD1157   PD        0.272251    0.450956    0.305103     0.005394
PD1158   PD        0.307368    0.415314    0.306323     0.005394
PD1159   PD        0.309555    0.452731    0.340696     0.005394
PD1160   PD        0.340474    0.415264    0.345349     0.005394
PD1161   PD        0.346585    0.455251    0.305199     0.005394
PD1162   PD        0.381843    0.414104    0.307696     0.005394
PD1163   PD        0.384169    0.451529    0.340190     0.005394
PD1164   PD        0.420936    0.418303    0.339559     0.005394
PD1165   PD        0.413418    0.466146    0.329847     0.005394
PD1166   PD        0.453208    0.399165    0.302969     0.005394
PD1167   PD        0.456302    0.452855    0.341807     0.005394
PD1168   PD        0.492588    0.417660    0.341984     0.005394
PD1169   PD        0.494292    0.453471    0.305454     0.005394
PD1170   PD        0.535218    0.412685    0.293532     0.005394
PD1171   PD        0.529710    0.453243    0.340172     0.005394
PD1172   PD        0.564271    0.419059    0.340297     0.005394
PD1173   PD        0.568665    0.453066    0.304629     0.005394
PD1174   PD        0.582387    0.408967    0.287270     0.005394
PD1175   PD        0.604226    0.451807    0.340699     0.005394
PD1176   PD        0.650473    0.412731    0.329525     0.005394
PD1177   PD        0.672727    0.449265    0.327337     0.005394
PD1178   PD        0.641780    0.418002    0.271620     0.005394
PD1179   PD        0.677189    0.453438    0.340347     0.005394
PD1180   PD        0.712357    0.417850    0.341067     0.005394
NI1181   NI        0.701433    0.474052    0.292975     0.004307
NI1182   NI        0.757402    0.410019    0.290384     0.004307
NI1183   NI        0.753110    0.432595    0.332233     0.004307
PD1184   PD        0.785116    0.416050    0.343652     0.005394
PD1185   PD        0.788033    0.451595    0.306902     0.005394
NI1186   NI        0.832977    0.409117    0.294768     0.004307
NI1187   NI        0.822460    0.432843    0.335381     0.004307
NI1188   NI        0.898276    0.450991    0.339518     0.004307
NI1189   NI        0.860776    0.448895    0.307766     0.004307
NI1190   NI        0.049044    0.485860    0.340054     0.004307
NI1191   NI        0.048989    0.520359    0.307833     0.004307
PD1192   PD        0.087962    0.485471    0.307868     0.005394
PD1193   PD        0.086775    0.518543    0.340811     0.005394
PD1194   PD        0.123414    0.484592    0.339117     0.005394
NI1195   NI        0.119135    0.523037    0.304765     0.004307
PD1196   PD        0.126067    0.516597    0.306923     0.005394
PD1197   PD        0.160696    0.520408    0.340251     0.005394
PD1198   PD        0.200531    0.484458    0.340120     0.005394
PD1199   PD        0.196729    0.518148    0.304789     0.005394
PD1200   PD        0.235077    0.485459    0.307952     0.005394
PD1201   PD        0.235187    0.522285    0.337904     0.005394
PD1202   PD        0.272369    0.487098    0.337992     0.005394
PD1203   PD        0.270861    0.519848    0.305005     0.005394
PD1204   PD        0.307401    0.487116    0.303556     0.005394
PD1205   PD        0.311112    0.548932    0.349272     0.005394
PD1206   PD        0.346538    0.485520    0.339537     0.005394
PD1207   PD        0.344889    0.520852    0.305492     0.005394
PD1208   PD        0.383795    0.486163    0.307010     0.005394
PD1209   PD        0.383645    0.521554    0.343149     0.005394
PD1210   PD        0.420528    0.485559    0.340284     0.005394
PD1211   PD        0.420822    0.521070    0.307032     0.005394
PD1212   PD        0.457785    0.485273    0.306934     0.005394
PD1213   PD        0.456302    0.519729    0.340123     0.005394
PD1214   PD        0.493468    0.487007    0.339540     0.005394
PD1215   PD        0.493585    0.520870    0.305998     0.005394
PD1216   PD        0.539726    0.484185    0.293397     0.005394
PD1217   PD        0.530488    0.523520    0.339211     0.005394
PD1218   PD        0.566826    0.485390    0.340052     0.005394
PD1219   PD        0.567944    0.523901    0.305462     0.005394
PD1220   PD        0.610853    0.477865    0.296765     0.005394
PD1221   PD        0.603673    0.520536    0.339140     0.005394
PD1222   PD        0.641279    0.489424    0.341186     0.005394
PD1223   PD        0.642052    0.522418    0.306228     0.005394
PD1224   PD        0.679687    0.487759    0.306969     0.005394
PD1225   PD        0.676696    0.537600    0.314331     0.005394
PD1226   PD        0.718770    0.467317    0.336987     0.005394
PD1227   PD        0.713961    0.520284    0.305777     0.005394
PD1228   PD        0.752771    0.486914    0.306797     0.005394
PD1229   PD        0.789284    0.555473    0.341006     0.005394
NI1230   NI        0.818657    0.482966    0.373482     0.004307
PD1231   PD        0.788262    0.520641    0.306266     0.005394
NI1232   NI        0.824984    0.492826    0.301878     0.004307
PD1233   PD        0.825591    0.520051    0.339999     0.005394
NI1234   NI        0.862709    0.484695    0.339239     0.004307
NI1235   NI        0.861012    0.518168    0.305847     0.004307
NI1236   NI        0.012575    0.587943    0.341156     0.004307
NI1237   NI        0.084118    0.553374    0.307509     0.004307
NI1238   NI        0.087536    0.588147    0.339199     0.004307
PD1239   PD        0.123325    0.553778    0.340249     0.005394
PD1240   PD        0.124241    0.587922    0.305814     0.005394
PD1241   PD        0.159950    0.553992    0.304306     0.005394
PD1242   PD        0.158613    0.587758    0.339454     0.005394
NI1243   NI        0.171967    0.566906    0.348895     0.004307
PD1244   PD        0.193750    0.588283    0.303980     0.005394
PD1245   PD        0.232590    0.554899    0.304262     0.005394
PD1246   PD        0.232152    0.589508    0.337309     0.005394
PD1247   PD        0.283119    0.531922    0.329889     0.005394
NI1248   NI        0.257562    0.557356    0.297128     0.004307
PD1249   PD        0.308174    0.556943    0.301492     0.005394
PD1250   PD        0.302798    0.592208    0.339892     0.005394
PD1251   PD        0.345816    0.552631    0.343998     0.005394
PD1252   PD        0.344847    0.588085    0.303071     0.005394
PD1253   PD        0.384304    0.554127    0.305819     0.005394
PD1254   PD        0.383031    0.588567    0.339416     0.005394
PD1255   PD        0.419989    0.556488    0.339056     0.005394
PD1256   PD        0.419944    0.587113    0.305801     0.005394
PD1257   PD        0.457066    0.556376    0.305051     0.005394
PD1258   PD        0.456043    0.589629    0.339607     0.005394
PD1259   PD        0.493481    0.555950    0.339666     0.005394
PD1260   PD        0.495010    0.589423    0.305824     0.005394
PD1261   PD        0.531275    0.556345    0.305487     0.005394
PD1262   PD        0.519176    0.598822    0.305836     0.005394
PD1263   PD        0.568454    0.556701    0.340714     0.005394
PD1264   PD        0.590096    0.603968    0.296424     0.005394
PD1265   PD        0.603761    0.557588    0.305932     0.005394
PD1266   PD        0.604860    0.592275    0.340194     0.005394
PD1267   PD        0.642433    0.556644    0.340657     0.005394
PD1268   PD        0.678901    0.591750    0.271405     0.005394
NI1269   NI        0.666159    0.580565    0.297343     0.004307
PD1270   PD        0.677058    0.591309    0.340291     0.005394
PD1271   PD        0.715585    0.557129    0.339973     0.005394
PD1272   PD        0.715888    0.590744    0.306350     0.005394
PD1273   PD        0.753544    0.555775    0.305604     0.005394
PD1274   PD        0.751178    0.590495    0.340388     0.005394
NI1275   NI        0.779853    0.575870    0.370385     0.004307
NI1276   NI        0.782269    0.591295    0.326746     0.004307
NI1277   NI        0.846757    0.558666    0.262665     0.004307
NI1278   NI        0.826016    0.590027    0.340518     0.004307
NI1279   NI        0.861668    0.553773    0.340383     0.004307
NI1280   NI        0.123868    0.621636    0.340488     0.004307
NI1281   NI        0.122559    0.656062    0.306456     0.004307
PD1282   PD        0.159445    0.622791    0.306815     0.005394
PD1283   PD        0.159286    0.656675    0.339907     0.005394
PD1284   PD        0.196669    0.623581    0.339428     0.005394
NI1285   NI        0.205316    0.693024    0.293058     0.004307
PD1286   PD        0.232156    0.622213    0.305410     0.005394
PD1287   PD        0.233556    0.658209    0.337250     0.005394
PD1288   PD        0.270610    0.622531    0.337412     0.005394
PD1289   PD        0.269753    0.658625    0.304984     0.005394
PD1290   PD        0.308208    0.624835    0.302922     0.005394
PD1291   PD        0.307514    0.657561    0.339059     0.005394
PD1292   PD        0.344300    0.623904    0.337759     0.005394
PD1293   PD        0.345585    0.658745    0.304616     0.005394
NI1294   NI        0.382829    0.618896    0.298965     0.004307
PD1295   PD        0.382464    0.657521    0.339615     0.005394
PD1296   PD        0.417166    0.622581    0.338519     0.005394
NI1297   NI        0.399170    0.682522    0.328720     0.004307
PD1298   PD        0.456983    0.625881    0.305579     0.005394
PD1299   PD        0.456296    0.657805    0.337685     0.005394
PD1300   PD        0.494740    0.624297    0.340579     0.005394
PD1301   PD        0.494550    0.658004    0.305410     0.005394
PD1302   PD        0.539645    0.610170    0.314897     0.005394
PD1303   PD        0.532252    0.659674    0.340384     0.005394
PD1304   PD        0.556565    0.600883    0.329497     0.005394
PD1305   PD        0.542380    0.639027    0.297470     0.005394
NI1306   NI        0.613389    0.645050    0.286764     0.004307
PD1307   PD        0.604523    0.661347    0.339398     0.005394
PD1308   PD        0.643500    0.624684    0.340230     0.005394
PD1309   PD        0.643143    0.659483    0.305992     0.005394
PD1310   PD        0.679101    0.624480    0.306398     0.005394
PD1311   PD        0.678761    0.659151    0.340716     0.005394
PD1312   PD        0.716603    0.624463    0.339635     0.005394
PD1313   PD        0.715082    0.659622    0.306178     0.005394
PD1314   PD        0.753089    0.623715    0.306559     0.005394
NI1315   NI        0.759667    0.665121    0.377162     0.004307
NI1316   NI        0.790061    0.623783    0.339929     0.004307
NI1317   NI        0.789374    0.657493    0.306512     0.004307
NI1318   NI        0.160899    0.689277    0.306159     0.004307
PD1319   PD        0.196485    0.691543    0.339508     0.005394
NI1320   NI        0.198220    0.758211    0.337009     0.004307
PD1321   PD        0.234969    0.691175    0.304003     0.005394
NI1322   NI        0.245857    0.725148    0.362714     0.004307
PD1323   PD        0.270229    0.690523    0.337530     0.005394
NI1324   NI        0.285335    0.701081    0.318144     0.004307
PD1325   PD        0.309008    0.689422    0.304200     0.005394
PD1326   PD        0.346973    0.723015    0.306453     0.005394
PD1327   PD        0.345532    0.691545    0.341065     0.005394
PD1328   PD        0.346902    0.723417    0.306327     0.005394
NI1329   NI        0.357626    0.706923    0.312859     0.004307
PD1330   PD        0.381125    0.725929    0.341261     0.005394
PD1331   PD        0.420299    0.691150    0.341120     0.005394
PD1332   PD        0.381720    0.757760    0.305004     0.005394
PD1333   PD        0.457742    0.693083    0.307355     0.005394
PD1334   PD        0.456881    0.726246    0.340056     0.005394
PD1335   PD        0.493906    0.692836    0.339991     0.005394
PD1336   PD        0.492974    0.727146    0.305871     0.005394
PD1337   PD        0.530210    0.693237    0.305339     0.005394
PD1338   PD        0.530660    0.726802    0.339381     0.005394
PD1339   PD        0.568488    0.693724    0.340297     0.005394
NI1340   NI        0.558518    0.726354    0.284653     0.004307
PD1341   PD        0.605113    0.694016    0.305773     0.005394
PD1342   PD        0.605413    0.727817    0.340230     0.005394
NI1343   NI        0.632835    0.703590    0.320151     0.004307
NI1344   NI        0.655863    0.718900    0.286731     0.004307
NI1345   NI        0.634563    0.688756    0.271096     0.004307
NI1346   NI        0.678929    0.726234    0.340640     0.004307
PD1347   PD        0.715520    0.693031    0.340831     0.005394
NI1348   NI        0.715184    0.727818    0.305900     0.004307
NI1349   NI        0.760085    0.664203    0.306256     0.004307
NI1350   NI        0.271765    0.757727    0.338715     0.004307
NI1351   NI        0.270855    0.781229    0.299800     0.004307
NI1352   NI        0.296911    0.791465    0.361720     0.004307
PD1353   PD        0.345726    0.758708    0.339778     0.005394
NI1354   NI        0.335673    0.803548    0.328484     0.004307
NI1355   NI        0.346020    0.791426    0.305486     0.004307
PD1356   PD        0.382110    0.791664    0.338809     0.005394
NI1357   NI        0.458059    0.785134    0.335970     0.004307
NI1358   NI        0.418483    0.790290    0.303395     0.004307
PD1359   PD        0.455843    0.761290    0.305792     0.005394
NI1360   NI        0.456276    0.793764    0.340468     0.004307
PD1361   PD        0.493550    0.761566    0.339641     0.005394
NI1362   NI        0.492857    0.794669    0.307885     0.004307
PD1363   PD        0.530436    0.760716    0.306400     0.005394
PD1364   PD        0.530224    0.794785    0.339240     0.005394
PD1365   PD        0.567924    0.761355    0.340726     0.005394
NI1366   NI        0.601294    0.790268    0.335359     0.004307
NI1367   NI        0.581785    0.755835    0.316270     0.004307
NI1368   NI        0.604679    0.796593    0.340600     0.004307
NI1369   NI        0.641775    0.763029    0.340211     0.004307
NI1370   NI        0.275425    0.057903    0.362027     0.004307
NI1371   NI        0.305082    0.036430    0.408751     0.004307
NI1372   NI        0.342141    0.037517    0.375796     0.004307
NI1373   NI        0.379816    0.037987    0.406847     0.004307
NI1374   NI        0.416498    0.001931    0.408519     0.004307
NI1375   NI        0.418924    0.034391    0.375649     0.004307
NI1376   NI        0.454198    0.003443    0.372832     0.004307
NI1377   NI        0.461762    0.018608    0.397933     0.004307
NI1378   NI        0.492430    0.004054    0.406506     0.004307
NI1379   NI        0.478064    0.028706    0.356394     0.004307
NI1380   NI        0.494506    0.012912    0.400439     0.004307
NI1381   NI        0.566573    0.039549    0.373704     0.004307
NI1382   NI        0.602341    0.074864    0.442188     0.004307
NI1383   NI        0.691820    0.059963    0.344936     0.004307
NI1384   NI        0.121215    0.110174    0.445145     0.004307
NI1385   NI        0.193192    0.072534    0.410043     0.004307
NI1386   NI        0.179939    0.127469    0.366902     0.004307
NI1387   NI        0.229308    0.072520    0.376431     0.004307
NI1388   NI        0.230839    0.105049    0.417352     0.004307
NI1389   NI        0.238262    0.071053    0.378804     0.004307
PD1390   PD        0.267857    0.103821    0.374988     0.005394
NI1391   NI        0.305443    0.073130    0.374665     0.004307
PD1392   PD        0.305654    0.106681    0.408723     0.005394
PD1393   PD        0.341238    0.071918    0.410608     0.005394
PD1394   PD        0.341390    0.105390    0.374157     0.005394
PD1395   PD        0.379910    0.070445    0.374019     0.005394
NI1396   NI        0.388792    0.105558    0.404659     0.004307
PD1397   PD        0.415213    0.070467    0.409240     0.005394
PD1398   PD        0.416216    0.104954    0.375129     0.005394
PD1399   PD        0.452284    0.071583    0.374327     0.005394
PD1400   PD        0.452837    0.104780    0.408243     0.005394
PD1401   PD        0.491067    0.071074    0.408636     0.005394
PD1402   PD        0.489649    0.105036    0.374213     0.005394
PD1403   PD        0.528142    0.072254    0.374676     0.005394
PD1404   PD        0.526238    0.105761    0.408941     0.005394
NI1405   NI        0.576257    0.060545    0.430503     0.004307
NI1406   NI        0.564280    0.076946    0.405727     0.004307
NI1407   NI        0.616334    0.075243    0.381947     0.004307
PD1408   PD        0.600103    0.109017    0.408016     0.005394
NI1409   NI        0.639274    0.074787    0.407961     0.004307
NI1410   NI        0.651501    0.096354    0.353267     0.004307
NI1411   NI        0.666225    0.068494    0.388904     0.004307
NI1412   NI        0.675637    0.109685    0.407079     0.004307
NI1413   NI        0.711923    0.076541    0.407975     0.004307
NI1414   NI        0.712636    0.109324    0.373365     0.004307
NI1415   NI        0.746918    0.110616    0.407304     0.004307
NI1416   NI        0.085652    0.178806    0.410690     0.004307
NI1417   NI        0.091374    0.140404    0.443186     0.004307
NI1418   NI        0.120757    0.178131    0.375816     0.004307
NI1419   NI        0.135507    0.139120    0.351358     0.004307
NI1420   NI        0.158089    0.175996    0.409967     0.004307
PD1421   PD        0.194032    0.140932    0.410319     0.005394
PD1422   PD        0.194045    0.174513    0.374782     0.005394
PD1423   PD        0.231318    0.142105    0.375180     0.005394
PD1424   PD        0.231628    0.175256    0.410225     0.005394
PD1425   PD        0.268669    0.139789    0.411341     0.005394
PD1426   PD        0.266474    0.173069    0.376296     0.005394
NI1427   NI        0.278745    0.139130    0.353103     0.004307
NI1428   NI        0.318782    0.164941    0.422468     0.004307
NI1429   NI        0.312984    0.121407    0.400965     0.004307
NI1430   NI        0.314776    0.160660    0.375197     0.004307
PD1431   PD        0.378880    0.139339    0.375136     0.005394
NI1432   NI        0.381743    0.176436    0.387729     0.004307
PD1433   PD        0.416794    0.138344    0.408694     0.005394
PD1434   PD        0.414531    0.173154    0.374822     0.005394
PD1435   PD        0.452181    0.139324    0.374230     0.005394
PD1436   PD        0.452790    0.172833    0.408906     0.005394
PD1437   PD        0.489323    0.140080    0.408626     0.005394
PD1438   PD        0.488659    0.174436    0.375224     0.005394
PD1439   PD        0.525387    0.142201    0.374507     0.005394
PD1440   PD        0.524996    0.174852    0.409042     0.005394
PD1441   PD        0.563475    0.140644    0.410083     0.005394
NI1442   NI        0.584361    0.163892    0.377583     0.004307
PD1443   PD        0.599104    0.143587    0.373798     0.005394
PD1444   PD        0.600409    0.177848    0.409853     0.005394
PD1445   PD        0.634725    0.145100    0.406984     0.005394
NI1446   NI        0.658711    0.180214    0.368835     0.004307
NI1447   NI        0.674035    0.142995    0.375930     0.004307
PD1448   PD        0.673351    0.178197    0.407737     0.005394
NI1449   NI        0.710152    0.145310    0.407639     0.004307
NI1450   NI        0.736748    0.168226    0.360051     0.004307
NI1451   NI        0.734657    0.124460    0.378859     0.004307
NI1452   NI        0.747359    0.180015    0.407526     0.004307
NI1453   NI        0.793327    0.115152    0.401599     0.004307
NI1454   NI        0.782581    0.178527    0.373930     0.004307
NI1455   NI        0.791069    0.161676    0.401330     0.004307
NI1456   NI        0.051554    0.244775    0.376562     0.004307
NI1457   NI        0.082950    0.209637    0.376196     0.004307
NI1458   NI        0.067331    0.258899    0.404006     0.004307
NI1459   NI        0.121462    0.209874    0.407991     0.004307
NI1460   NI        0.113466    0.204941    0.375446     0.004307
PD1461   PD        0.158774    0.209929    0.375835     0.005394
PD1462   PD        0.160793    0.246099    0.409972     0.005394
PD1463   PD        0.194718    0.210242    0.408975     0.005394
PD1464   PD        0.194637    0.241320    0.374372     0.005394
PD1465   PD        0.231393    0.208761    0.375864     0.005394
NI1466   NI        0.228693    0.239694    0.420556     0.004307
PD1467   PD        0.267527    0.208005    0.409576     0.005394
PD1468   PD        0.270003    0.245151    0.375854     0.005394
PD1469   PD        0.304032    0.208520    0.374192     0.005394
PD1470   PD        0.303466    0.242367    0.410410     0.005394
PD1471   PD        0.339901    0.207980    0.409532     0.005394
PD1472   PD        0.333320    0.226167    0.370233     0.005394
PD1473   PD        0.379063    0.206846    0.375769     0.005394
PD1474   PD        0.378734    0.230505    0.386770     0.005394
PD1475   PD        0.414118    0.207452    0.410044     0.005394
PD1476   PD        0.415109    0.241654    0.375379     0.005394
PD1477   PD        0.451435    0.208681    0.374743     0.005394
PD1478   PD        0.444506    0.246583    0.404730     0.005394
PD1479   PD        0.488543    0.209231    0.408009     0.005394
PD1480   PD        0.486891    0.241550    0.375848     0.005394
PD1481   PD        0.527364    0.210395    0.377121     0.005394
PD1482   PD        0.523552    0.223885    0.383562     0.005394
PD1483   PD        0.563260    0.209176    0.408230     0.005394
PD1484   PD        0.574664    0.225880    0.373699     0.005394
PD1485   PD        0.598904    0.210318    0.374237     0.005394
NI1486   NI        0.611507    0.224603    0.407257     0.004307
NI1487   NI        0.659083    0.214022    0.402044     0.004307
PD1488   PD        0.635419    0.245818    0.373385     0.005394
NI1489   NI        0.681851    0.188796    0.374998     0.004307
PD1490   PD        0.672143    0.248230    0.409459     0.005394
PD1491   PD        0.708684    0.214738    0.406415     0.005394
PD1492   PD        0.710476    0.248582    0.374665     0.005394
NI1493   NI        0.745378    0.212707    0.372804     0.004307
PD1494   PD        0.746406    0.249050    0.406723     0.005394
NI1495   NI        0.767795    0.215911    0.433898     0.004307
NI1496   NI        0.803860    0.247025    0.364260     0.004307
NI1497   NI        0.836890    0.210685    0.364307     0.004307
NI1498   NI        0.819256    0.246622    0.409379     0.004307
NI1499   NI        0.888312    0.207628    0.373149     0.004307
NI1500   NI        0.049171    0.280898    0.409862     0.004307
NI1501   NI        0.050072    0.314633    0.374621     0.004307
NI1502   NI        0.087829    0.278903    0.373929     0.004307
NI1503   NI        0.081629    0.301726    0.393758     0.004307
PD1504   PD        0.123231    0.279161    0.408153     0.005394
PD1505   PD        0.126132    0.312937    0.374678     0.005394
NI1506   NI        0.149289    0.235286    0.387026     0.004307
PD1507   PD        0.160944    0.315249    0.410759     0.005394
PD1508   PD        0.162923    0.278658    0.372814     0.005394
NI1509   NI        0.185059    0.320088    0.407058     0.004307
PD1510   PD        0.232773    0.278356    0.376781     0.005394
PD1511   PD        0.235012    0.313023    0.410393     0.005394
PD1512   PD        0.268899    0.274626    0.409296     0.005394
PD1513   PD        0.271511    0.311725    0.377577     0.005394
PD1514   PD        0.306227    0.277292    0.375743     0.005394
PD1515   PD        0.307315    0.312777    0.409828     0.005394
PD1516   PD        0.343226    0.275683    0.409076     0.005394
PD1517   PD        0.342385    0.311411    0.375475     0.005394
PD1518   PD        0.378025    0.276225    0.376640     0.005394
PD1519   PD        0.381223    0.310937    0.409655     0.005394
PD1520   PD        0.451759    0.242228    0.410317     0.005394
PD1521   PD        0.421715    0.298316    0.371430     0.005394
PD1522   PD        0.436711    0.250678    0.377902     0.005394
PD1523   PD        0.452607    0.317456    0.409018     0.005394
PD1524   PD        0.486859    0.250208    0.381102     0.005394
PD1525   PD        0.507054    0.315955    0.367388     0.005394
PD1526   PD        0.523289    0.278442    0.376324     0.005394
PD1527   PD        0.527420    0.315008    0.410323     0.005394
PD1528   PD        0.577544    0.286017    0.406346     0.005394
PD1529   PD        0.560335    0.313620    0.375681     0.005394
PD1530   PD        0.609960    0.288752    0.379930     0.005394
PD1531   PD        0.627072    0.308822    0.424178     0.005394
PD1532   PD        0.634463    0.279090    0.410131     0.005394
PD1533   PD        0.646973    0.317912    0.365977     0.005394
NI1534   NI        0.661667    0.283823    0.380489     0.004307
NI1535   NI        0.683304    0.297056    0.411425     0.004307
PD1536   PD        0.709406    0.282165    0.408459     0.005394
PD1537   PD        0.709691    0.317815    0.375757     0.005394
PD1538   PD        0.745521    0.280830    0.373945     0.005394
NI1539   NI        0.751841    0.303893    0.392726     0.004307
PD1540   PD        0.782776    0.283333    0.407619     0.005394
PD1541   PD        0.784315    0.316274    0.373895     0.005394
NI1542   NI        0.830740    0.286207    0.357518     0.004307
NI1543   NI        0.820054    0.315445    0.407959     0.004307
NI1544   NI        0.858117    0.279877    0.409827     0.004307
NI1545   NI        0.858809    0.314763    0.376170     0.004307
NI1546   NI        0.014948    0.382882    0.409493     0.004307
NI1547   NI        0.045051    0.325160    0.398811     0.004307
NI1548   NI        0.051422    0.382140    0.376898     0.004307
PD1549   PD        0.088415    0.348748    0.375081     0.005394
NI1550   NI        0.076781    0.398247    0.401598     0.004307
NI1551   NI        0.113822    0.325302    0.419835     0.004307
PD1552   PD        0.125729    0.382582    0.372818     0.005394
PD1553   PD        0.161318    0.346886    0.374569     0.005394
NI1554   NI        0.149781    0.360066    0.411422     0.004307
PD1555   PD        0.199139    0.347188    0.409901     0.005394
PD1556   PD        0.199013    0.381285    0.373012     0.005394
PD1557   PD        0.234841    0.344306    0.375304     0.005394
PD1558   PD        0.236473    0.381006    0.408711     0.005394
PD1559   PD        0.271219    0.344313    0.409893     0.005394
PD1560   PD        0.270383    0.380305    0.375000     0.005394
PD1561   PD        0.309132    0.346362    0.378323     0.005394
PD1562   PD        0.308126    0.379505    0.408168     0.005394
PD1563   PD        0.345150    0.347342    0.405497     0.005394
PD1564   PD        0.343274    0.384935    0.376464     0.005394
PD1565   PD        0.377016    0.349863    0.373818     0.005394
PD1566   PD        0.379037    0.383975    0.409954     0.005394
PD1567   PD        0.418910    0.348283    0.411836     0.005394
PD1568   PD        0.417241    0.383122    0.376814     0.005394
PD1569   PD        0.475283    0.349081    0.378949     0.005394
PD1570   PD        0.454297    0.383140    0.407107     0.005394
PD1571   PD        0.473206    0.322817    0.402894     0.005394
PD1572   PD        0.500873    0.386333    0.368242     0.005394
PD1573   PD        0.525441    0.347720    0.378001     0.005394
PD1574   PD        0.527365    0.382936    0.410462     0.005394
PD1575   PD        0.560597    0.347607    0.411848     0.005394
PD1576   PD        0.561007    0.383807    0.373623     0.005394
PD1577   PD        0.559771    0.353787    0.405010     0.005394
PD1578   PD        0.599759    0.385312    0.406421     0.005394
PD1579   PD        0.636088    0.351498    0.407300     0.005394
PD1580   PD        0.637822    0.381537    0.379103     0.005394
PD1581   PD        0.675040    0.352070    0.378967     0.005394
PD1582   PD        0.670232    0.379335    0.418957     0.005394
PD1583   PD        0.711528    0.351188    0.410026     0.005394
PD1584   PD        0.712689    0.384700    0.373927     0.005394
PD1585   PD        0.748947    0.350208    0.374983     0.005394
PD1586   PD        0.750827    0.385828    0.408978     0.005394
NI1587   NI        0.798647    0.365369    0.419999     0.004307
PD1588   PD        0.786761    0.383306    0.378341     0.005394
PD1589   PD        0.822606    0.349612    0.375127     0.005394
PD1590   PD        0.822551    0.383160    0.408754     0.005394
NI1591   NI        0.859020    0.348553    0.409458     0.004307
NI1592   NI        0.859012    0.382260    0.374890     0.004307
NI1593   NI        0.896114    0.382038    0.408406     0.004307
NI1594   NI        0.000769    0.433534    0.351962     0.004307
NI1595   NI        0.005536    0.437932    0.418879     0.004307
NI1596   NI        0.051178    0.415871    0.410227     0.004307
PD1597   PD        0.086475    0.451822    0.341775     0.005394
NI1598   NI        0.059625    0.395543    0.354831     0.004307
NI1599   NI        0.066118    0.429168    0.386553     0.004307
NI1600   NI        0.112401    0.416966    0.399098     0.004307
PD1601   PD        0.125643    0.451751    0.374429     0.005394
NI1602   NI        0.155137    0.413103    0.375959     0.004307
PD1603   PD        0.162002    0.451488    0.408483     0.005394
PD1604   PD        0.199426    0.415957    0.407773     0.005394
PD1605   PD        0.200474    0.453353    0.374882     0.005394
PD1606   PD        0.236385    0.416272    0.373646     0.005394
PD1607   PD        0.225842    0.447375    0.414428     0.005394
PD1608   PD        0.268328    0.413330    0.408394     0.005394
PD1609   PD        0.267422    0.450074    0.386214     0.005394
PD1610   PD        0.302415    0.405078    0.369076     0.005394
PD1611   PD        0.309517    0.452336    0.407378     0.005394
PD1612   PD        0.346984    0.417220    0.408449     0.005394
PD1613   PD        0.332321    0.447294    0.381179     0.005394
PD1614   PD        0.366856    0.425111    0.399855     0.005394
PD1615   PD        0.383570    0.451805    0.408639     0.005394
PD1616   PD        0.417866    0.418247    0.409026     0.005394
PD1617   PD        0.418665    0.452611    0.373118     0.005394
PD1618   PD        0.456270    0.418103    0.374140     0.005394
PD1619   PD        0.456339    0.453263    0.407984     0.005394
PD1620   PD        0.493311    0.405394    0.407771     0.005394
PD1621   PD        0.491670    0.453237    0.375224     0.005394
PD1622   PD        0.527519    0.418852    0.373587     0.005394
PD1623   PD        0.529440    0.451618    0.411260     0.005394
PD1624   PD        0.567809    0.418705    0.409092     0.005394
PD1625   PD        0.563519    0.452411    0.373439     0.005394
PD1626   PD        0.602843    0.419979    0.376126     0.005394
PD1627   PD        0.594288    0.444870    0.397959     0.005394
PD1628   PD        0.639033    0.420716    0.412491     0.005394
PD1629   PD        0.640573    0.455848    0.374136     0.005394
PD1630   PD        0.691521    0.443916    0.369163     0.005394
PD1631   PD        0.677781    0.452049    0.408975     0.005394
PD1632   PD        0.714574    0.419924    0.409882     0.005394
PD1633   PD        0.714470    0.453155    0.375826     0.005394
NI1634   NI        0.744381    0.406200    0.384807     0.004307
PD1635   PD        0.751877    0.453708    0.411214     0.005394
NI1636   NI        0.801518    0.412030    0.416174     0.004307
NI1637   NI        0.784554    0.444958    0.384889     0.004307
PD1638   PD        0.824744    0.417507    0.376312     0.005394
PD1639   PD        0.827611    0.454013    0.410626     0.005394
PD1640   PD        0.862226    0.418147    0.409280     0.005394
NI1641   NI        0.861432    0.451260    0.375116     0.004307
NI1642   NI        0.895540    0.415667    0.374476     0.004307
NI1643   NI        0.899385    0.450717    0.408737     0.004307
NI1644   NI        0.036409    0.474962    0.406154     0.004307
NI1645   NI        0.051921    0.517833    0.377740     0.004307
NI1646   NI        0.081045    0.476708    0.385596     0.004307
NI1647   NI        0.062656    0.513748    0.396919     0.004307
PD1648   PD        0.122824    0.485507    0.409303     0.005394
PD1649   PD        0.124892    0.519168    0.374554     0.005394
PD1650   PD        0.162210    0.484464    0.373704     0.005394
NI1651   NI        0.165446    0.526076    0.422753     0.004307
NI1652   NI        0.166326    0.485196    0.390872     0.004307
NI1653   NI        0.185291    0.527743    0.377610     0.004307
PD1654   PD        0.212920    0.495426    0.361439     0.005394
PD1655   PD        0.236852    0.520603    0.407246     0.005394
PD1656   PD        0.252541    0.481595    0.415019     0.005394
PD1657   PD        0.273673    0.522047    0.371461     0.005394
PD1658   PD        0.307594    0.485786    0.373486     0.005394
PD1659   PD        0.308341    0.520797    0.409691     0.005394
PD1660   PD        0.344137    0.486201    0.407283     0.005394
PD1661   PD        0.346703    0.521199    0.374518     0.005394
PD1662   PD        0.384189    0.485915    0.373468     0.005394
PD1663   PD        0.382143    0.520599    0.406623     0.005394
PD1664   PD        0.418267    0.486588    0.409421     0.005394
PD1665   PD        0.396450    0.545672    0.381235     0.005394
PD1666   PD        0.456992    0.485056    0.373931     0.005394
PD1667   PD        0.466282    0.508488    0.430650     0.005394
PD1668   PD        0.493640    0.488009    0.408521     0.005394
PD1669   PD        0.495101    0.521261    0.374392     0.005394
PD1670   PD        0.530058    0.486134    0.373353     0.005394
PD1671   PD        0.531291    0.522605    0.408033     0.005394
PD1672   PD        0.543898    0.451572    0.405988     0.005394
PD1673   PD        0.569882    0.522954    0.373992     0.005394
PD1674   PD        0.603529    0.486536    0.372751     0.005394
PD1675   PD        0.604525    0.520824    0.408157     0.005394
PD1676   PD        0.642504    0.487837    0.404963     0.005394
PD1677   PD        0.651293    0.521721    0.354327     0.005394
PD1678   PD        0.677751    0.487894    0.372903     0.005394
PD1679   PD        0.677372    0.520891    0.408229     0.005394
PD1680   PD        0.718754    0.465034    0.396075     0.005394
NI1681   NI        0.739389    0.533746    0.364751     0.004307
PD1682   PD        0.752811    0.486896    0.374844     0.005394
PD1683   PD        0.754045    0.522989    0.409269     0.005394
PD1684   PD        0.787923    0.488788    0.410787     0.005394
NI1685   NI        0.806414    0.513498    0.352377     0.004307
NI1686   NI        0.827945    0.486671    0.375588     0.004307
NI1687   NI        0.800738    0.535158    0.416244     0.004307
NI1688   NI        0.862974    0.485871    0.409910     0.004307
NI1689   NI        0.861446    0.519795    0.373885     0.004307
NI1690   NI        0.049125    0.553121    0.408396     0.004307
NI1691   NI        0.079477    0.640409    0.357078     0.004307
NI1692   NI        0.085302    0.552862    0.373626     0.004307
NI1693   NI        0.115357    0.570050    0.385557     0.004307
NI1694   NI        0.111109    0.556464    0.404331     0.004307
PD1695   PD        0.123001    0.587927    0.373167     0.005394
PD1696   PD        0.164021    0.552614    0.373484     0.005394
NI1697   NI        0.172451    0.574349    0.413870     0.004307
PD1698   PD        0.198411    0.553449    0.408312     0.005394
NI1699   NI        0.189463    0.609841    0.386550     0.004307
PD1700   PD        0.235823    0.555661    0.370708     0.005394
PD1701   PD        0.234003    0.589091    0.406946     0.005394
PD1702   PD        0.272457    0.555375    0.406239     0.005394
PD1703   PD        0.271153    0.590600    0.373251     0.005394
PD1704   PD        0.307069    0.556284    0.371403     0.005394
PD1705   PD        0.309521    0.590829    0.406371     0.005394
PD1706   PD        0.348482    0.556536    0.408096     0.005394
PD1707   PD        0.344793    0.590131    0.372339     0.005394
PD1708   PD        0.382046    0.557143    0.377261     0.005394
PD1709   PD        0.382197    0.587436    0.408800     0.005394
PD1710   PD        0.421720    0.555808    0.407884     0.005394
PD1711   PD        0.419428    0.589805    0.372484     0.005394
PD1712   PD        0.441405    0.568418    0.380066     0.005394
PD1713   PD        0.456579    0.587077    0.407165     0.005394
PD1714   PD        0.494926    0.557360    0.408835     0.005394
PD1715   PD        0.493248    0.590066    0.373407     0.005394
PD1716   PD        0.530120    0.555961    0.375185     0.005394
PD1717   PD        0.531467    0.590079    0.407837     0.005394
PD1718   PD        0.567533    0.557142    0.407533     0.005394
PD1719   PD        0.569210    0.590332    0.373645     0.005394
PD1720   PD        0.606786    0.555844    0.374743     0.005394
PD1721   PD        0.606209    0.590574    0.408723     0.005394
PD1722   PD        0.642530    0.557323    0.408772     0.005394
PD1723   PD        0.641969    0.591635    0.374928     0.005394
PD1724   PD        0.676914    0.563320    0.355209     0.005394
PD1725   PD        0.679908    0.590545    0.409874     0.005394
NI1726   NI        0.728008    0.577713    0.399224     0.004307
PD1727   PD        0.716636    0.592162    0.374126     0.005394
PD1728   PD        0.753053    0.556141    0.374479     0.005394
PD1729   PD        0.752491    0.589412    0.408447     0.005394
PD1730   PD        0.790040    0.555021    0.408267     0.005394
PD1731   PD        0.788772    0.589177    0.372569     0.005394
PD1732   PD        0.825933    0.555518    0.372806     0.005394
NI1733   NI        0.816885    0.598299    0.389942     0.004307
NI1734   NI        0.860825    0.554379    0.408553     0.004307
NI1735   NI        0.862999    0.590676    0.375269     0.004307
NI1736   NI        0.088250    0.622352    0.373404     0.004307
NI1737   NI        0.087253    0.657776    0.408392     0.004307
NI1738   NI        0.102367    0.616598    0.393807     0.004307
NI1739   NI        0.123877    0.655750    0.374222     0.004307
PD1740   PD        0.160743    0.622739    0.374240     0.005394
PD1741   PD        0.160991    0.656509    0.408773     0.005394
PD1742   PD        0.199239    0.623124    0.407800     0.005394
PD1743   PD        0.197922    0.658478    0.371540     0.005394
PD1744   PD        0.234052    0.622834    0.372065     0.005394
PD1745   PD        0.234613    0.657920    0.406853     0.005394
PD1746   PD        0.270322    0.625905    0.405943     0.005394
PD1747   PD        0.271781    0.655160    0.372775     0.005394
PD1748   PD        0.309463    0.624622    0.371720     0.005394
PD1749   PD        0.307816    0.658166    0.406150     0.005394
PD1750   PD        0.348645    0.620503    0.408804     0.005394
PD1751   PD        0.345301    0.659491    0.372800     0.005394
PD1752   PD        0.382395    0.623480    0.373105     0.005394
PD1753   PD        0.383438    0.656653    0.408900     0.005394
PD1754   PD        0.419995    0.624516    0.407413     0.005394
PD1755   PD        0.356939    0.641290    0.379363     0.005394
PD1756   PD        0.457735    0.625220    0.374532     0.005394
PD1757   PD        0.456267    0.658031    0.408523     0.005394
PD1758   PD        0.471261    0.633737    0.419488     0.005394
PD1759   PD        0.493308    0.657956    0.374383     0.005394
PD1760   PD        0.512211    0.620423    0.332118     0.005394
PD1761   PD        0.531477    0.658416    0.408802     0.005394
PD1762   PD        0.569570    0.625028    0.408679     0.005394
PD1763   PD        0.569730    0.660248    0.374818     0.005394
PD1764   PD        0.605467    0.625485    0.374500     0.005394
NI1765   NI        0.586477    0.667328    0.382223     0.004307
PD1766   PD        0.641989    0.624383    0.408278     0.005394
PD1767   PD        0.642757    0.659465    0.375029     0.005394
PD1768   PD        0.680411    0.626237    0.373981     0.005394
PD1769   PD        0.678484    0.658474    0.408916     0.005394
PD1770   PD        0.716367    0.625047    0.408186     0.005394
NI1771   NI        0.727507    0.680503    0.387462     0.004307
PD1772   PD        0.752350    0.624659    0.374318     0.005394
NI1773   NI        0.765954    0.658445    0.432272     0.004307
NI1774   NI        0.789545    0.624291    0.409722     0.004307
NI1775   NI        0.788605    0.657750    0.374061     0.004307
NI1776   NI        0.849338    0.632769    0.358362     0.004307
NI1777   NI        0.825113    0.657666    0.409425     0.004307
NI1778   NI        0.122434    0.691687    0.407137     0.004307
PD1779   PD        0.160678    0.691458    0.373798     0.005394
NI1780   NI        0.160615    0.725789    0.407355     0.004307
PD1781   PD        0.198978    0.691615    0.407477     0.005394
NI1782   NI        0.196939    0.725681    0.374483     0.004307
PD1783   PD        0.235928    0.692852    0.371698     0.005394
NI1784   NI        0.231191    0.732289    0.373445     0.004307
PD1785   PD        0.270882    0.691119    0.406336     0.005394
NI1786   NI        0.232588    0.726150    0.337223     0.004307
PD1787   PD        0.307629    0.688785    0.373577     0.005394
PD1788   PD        0.309472    0.725672    0.406350     0.005394
PD1789   PD        0.345629    0.688344    0.408131     0.005394
PD1790   PD        0.345474    0.724378    0.372813     0.005394
PD1791   PD        0.383268    0.691787    0.373586     0.005394
PD1792   PD        0.382924    0.759911    0.374292     0.005394
PD1793   PD        0.430809    0.671137    0.399067     0.005394
PD1794   PD        0.419773    0.726829    0.373923     0.005394
PD1795   PD        0.458146    0.692693    0.374068     0.005394
PD1796   PD        0.457427    0.726636    0.408441     0.005394
PD1797   PD        0.495546    0.691795    0.408826     0.005394
PD1798   PD        0.493344    0.727101    0.373512     0.005394
PD1799   PD        0.531116    0.692754    0.374103     0.005394
PD1800   PD        0.530796    0.725949    0.407664     0.005394
PD1801   PD        0.568530    0.693904    0.409138     0.005394
PD1802   PD        0.567684    0.727255    0.374646     0.005394
PD1803   PD        0.604691    0.693291    0.374708     0.005394
NI1804   NI        0.595024    0.749761    0.396011     0.004307
PD1805   PD        0.643227    0.692901    0.408854     0.005394
PD1806   PD        0.643079    0.727897    0.374882     0.005394
PD1807   PD        0.678725    0.693447    0.374365     0.005394
PD1808   PD        0.678970    0.727755    0.409259     0.005394
NI1809   NI        0.713547    0.701875    0.438155     0.004307
NI1810   NI        0.716122    0.728183    0.374951     0.004307
NI1811   NI        0.744129    0.708536    0.356155     0.004307
NI1812   NI        0.752899    0.726860    0.410270     0.004307
NI1813   NI        0.789834    0.691459    0.408837     0.004307
NI1814   NI        0.196242    0.759605    0.406993     0.004307
NI1815   NI        0.234286    0.759739    0.372026     0.004307
PD1816   PD        0.271422    0.759660    0.405651     0.005394
NI1817   NI        0.266828    0.798807    0.402640     0.004307
PD1818   PD        0.308704    0.758290    0.372893     0.005394
NI1819   NI        0.307900    0.793524    0.406478     0.004307
PD1820   PD        0.344512    0.758503    0.406405     0.005394
NI1821   NI        0.345177    0.793176    0.373629     0.004307
NI1822   NI        0.370979    0.776493    0.380809     0.004307
NI1823   NI        0.380829    0.792576    0.405391     0.004307
NI1824   NI        0.438358    0.753095    0.419849     0.004307
PD1825   PD        0.418615    0.792204    0.372989     0.005394
PD1826   PD        0.456948    0.760152    0.375289     0.005394
PD1827   PD        0.456110    0.794408    0.407681     0.005394
PD1828   PD        0.493491    0.760689    0.409265     0.005394
PD1829   PD        0.492525    0.793858    0.373532     0.005394
PD1830   PD        0.530818    0.761432    0.374822     0.005394
PD1831   PD        0.529546    0.795519    0.407953     0.005394
PD1832   PD        0.568152    0.760991    0.408231     0.005394
NI1833   NI        0.550926    0.801829    0.358733     0.004307
PD1834   PD        0.604530    0.761752    0.375567     0.005394
PD1835   PD        0.605086    0.794990    0.409243     0.005394
PD1836   PD        0.641742    0.761463    0.408473     0.005394
NI1837   NI        0.640905    0.796341    0.376258     0.004307
NI1838   NI        0.679205    0.762574    0.374690     0.004307
NI1839   NI        0.713871    0.756259    0.415917     0.004307
NI1840   NI        0.454389    0.827905    0.442351     0.004307
NI1841   NI        0.454426    0.862551    0.409025     0.004307
NI1842   NI        0.470842    0.835818    0.388202     0.004307
NI1843   NI        0.268478    0.039153    0.443578     0.004307
NI1844   NI        0.305142    0.036752    0.478320     0.004307
NI1845   NI        0.344482    0.036787    0.443122     0.004307
NI1846   NI        0.380004    0.002615    0.443840     0.004307
NI1847   NI        0.381837    0.036541    0.477573     0.004307
NI1848   NI        0.416724    0.000714    0.476881     0.004307
NI1849   NI        0.405610    0.023615    0.465525     0.004307
NI1850   NI        0.453383    0.003489    0.441325     0.004307
NI1851   NI        0.453912    0.036681    0.475916     0.004307
NI1852   NI        0.493233    0.001872    0.475736     0.004307
NI1853   NI        0.490095    0.035403    0.441040     0.004307
NI1854   NI        0.527866    0.005523    0.442180     0.004307
NI1855   NI        0.510244    0.025739    0.486782     0.004307
NI1856   NI        0.551083    0.039905    0.463147     0.004307
NI1857   NI        0.603439    0.039885    0.477270     0.004307
NI1858   NI        0.638867    0.040690    0.441027     0.004307
NI1859   NI        0.157728    0.107643    0.478662     0.004307
NI1860   NI        0.194488    0.072525    0.477453     0.004307
NI1861   NI        0.195835    0.106357    0.443898     0.004307
NI1862   NI        0.239654    0.057503    0.459969     0.004307
NI1863   NI        0.207558    0.095664    0.455289     0.004307
NI1864   NI        0.269703    0.071332    0.478511     0.004307
NI1865   NI        0.255774    0.110999    0.466691     0.004307
NI1866   NI        0.289719    0.070573    0.434859     0.004307
PD1867   PD        0.304856    0.104799    0.478205     0.005394
NI1868   NI        0.341797    0.071274    0.476894     0.004307
PD1869   PD        0.342616    0.104818    0.444997     0.005394
PD1870   PD        0.380199    0.068907    0.443436     0.005394
NI1871   NI        0.409423    0.091604    0.489716     0.004307
PD1872   PD        0.416873    0.069774    0.476913     0.005394
PD1873   PD        0.416094    0.103956    0.443421     0.005394
NI1874   NI        0.451351    0.049935    0.428313     0.004307
PD1875   PD        0.452964    0.105528    0.477099     0.005394
NI1876   NI        0.491846    0.071027    0.476103     0.004307
NI1877   NI        0.465963    0.093070    0.441973     0.004307
NI1878   NI        0.504376    0.048254    0.445839     0.004307
PD1879   PD        0.526982    0.104883    0.476659     0.005394
PD1880   PD        0.564934    0.073030    0.477188     0.005394
PD1881   PD        0.565246    0.107402    0.442258     0.005394
NI1882   NI        0.624860    0.048855    0.434920     0.004307
NI1883   NI        0.603296    0.093807    0.504770     0.004307
NI1884   NI        0.635719    0.074484    0.478461     0.004307
PD1885   PD        0.637484    0.109762    0.442350     0.005394
NI1886   NI        0.676021    0.076168    0.441697     0.004307
NI1887   NI        0.675838    0.110731    0.472335     0.004307
NI1888   NI        0.690254    0.065907    0.490306     0.004307
NI1889   NI        0.712289    0.110045    0.440184     0.004307
NI1890   NI        0.723827    0.102502    0.484582     0.004307
NI1891   NI        0.104949    0.184245    0.492887     0.004307
NI1892   NI        0.120170    0.142452    0.478985     0.004307
NI1893   NI        0.084200    0.144862    0.447517     0.004307
NI1894   NI        0.141348    0.142292    0.418942     0.004307
NI1895   NI        0.127724    0.162330    0.460741     0.004307
NI1896   NI        0.196869    0.144102    0.479211     0.004307
PD1897   PD        0.196627    0.176786    0.444855     0.005394
PD1898   PD        0.233369    0.140775    0.443204     0.005394
PD1899   PD        0.233610    0.174241    0.479222     0.005394
NI1900   NI        0.282152    0.161466    0.488784     0.004307
PD1901   PD        0.269270    0.174594    0.443317     0.005394
NI1902   NI        0.328967    0.116453    0.422648     0.004307
NI1903   NI        0.291351    0.181120    0.500859     0.004307
PD1904   PD        0.342266    0.137925    0.478693     0.005394
NI1905   NI        0.344362    0.166484    0.461839     0.004307
PD1906   PD        0.379038    0.137437    0.443902     0.005394
PD1907   PD        0.380184    0.173686    0.478385     0.005394
PD1908   PD        0.415813    0.138678    0.477591     0.005394
NI1909   NI        0.429385    0.150801    0.433084     0.004307
PD1910   PD        0.452830    0.138052    0.443076     0.005394
NI1911   NI        0.450997    0.182316    0.462291     0.004307
PD1912   PD        0.488021    0.141324    0.478390     0.005394
PD1913   PD        0.489963    0.174120    0.443158     0.005394
PD1914   PD        0.525440    0.140298    0.442588     0.005394
PD1915   PD        0.530527    0.150279    0.487061     0.005394
NI1916   NI        0.542445    0.115754    0.473768     0.004307
NI1917   NI        0.572839    0.152330    0.460991     0.004307
PD1918   PD        0.636115    0.170388    0.447932     0.005394
NI1919   NI        0.587884    0.169975    0.460189     0.004307
NI1920   NI        0.645169    0.146422    0.487447     0.004307
PD1921   PD        0.637114    0.177592    0.442475     0.005394
PD1922   PD        0.674098    0.145244    0.441097     0.005394
PD1923   PD        0.674135    0.177470    0.474181     0.005394
PD1924   PD        0.711598    0.145690    0.473642     0.005394
PD1925   PD        0.709338    0.179121    0.439798     0.005394
NI1926   NI        0.748571    0.145448    0.441988     0.004307
NI1927   NI        0.746293    0.178283    0.474353     0.004307
NI1928   NI        0.784807    0.145668    0.474940     0.004307
NI1929   NI        0.807817    0.172210    0.448048     0.004307
NI1930   NI        0.826987    0.183083    0.457356     0.004307
NI1931   NI        0.037906    0.238614    0.478833     0.004307
NI1932   NI        0.109868    0.200348    0.448544     0.004307
NI1933   NI        0.087929    0.246722    0.478841     0.004307
NI1934   NI        0.123327    0.212217    0.478152     0.004307
PD1935   PD        0.124336    0.244681    0.441825     0.005394
PD1936   PD        0.160595    0.211119    0.444488     0.005394
PD1937   PD        0.159922    0.243899    0.477984     0.005394
PD1938   PD        0.196382    0.209879    0.478625     0.005394
PD1939   PD        0.194751    0.247464    0.442902     0.005394
PD1940   PD        0.232307    0.209290    0.444544     0.005394
PD1941   PD        0.235251    0.244791    0.477371     0.005394
PD1942   PD        0.269330    0.207623    0.478424     0.005394
PD1943   PD        0.270323    0.244065    0.444968     0.005394
PD1944   PD        0.304144    0.207037    0.444682     0.005394
PD1945   PD        0.305565    0.241724    0.479424     0.005394
PD1946   PD        0.340919    0.221447    0.476404     0.005394
PD1947   PD        0.342877    0.244932    0.443953     0.005394
PD1948   PD        0.377489    0.205537    0.443695     0.005394
PD1949   PD        0.365941    0.226922    0.483271     0.005394
PD1950   PD        0.393767    0.203333    0.491743     0.005394
PD1951   PD        0.415334    0.242438    0.445421     0.005394
PD1952   PD        0.452711    0.207858    0.443701     0.005394
PD1953   PD        0.450207    0.243508    0.474365     0.005394
PD1954   PD        0.507352    0.191809    0.484558     0.005394
PD1955   PD        0.488260    0.241583    0.444957     0.005394
PD1956   PD        0.527608    0.208671    0.443424     0.005394
PD1957   PD        0.526030    0.241871    0.478086     0.005394
PD1958   PD        0.564501    0.209178    0.477779     0.005394
PD1959   PD        0.583705    0.236225    0.440407     0.005394
PD1960   PD        0.588110    0.190161    0.453220     0.005394
PD1961   PD        0.606904    0.229062    0.478491     0.005394
NI1962   NI        0.652526    0.209792    0.473895     0.004307
PD1963   PD        0.636935    0.246708    0.444225     0.005394
PD1964   PD        0.673399    0.214199    0.444333     0.005394
PD1965   PD        0.672727    0.247806    0.475783     0.005394
PD1966   PD        0.706075    0.211897    0.476129     0.005394
NI1967   NI        0.739420    0.254069    0.455710     0.004307
NI1968   NI        0.767300    0.208958    0.439478     0.004307
NI1969   NI        0.756764    0.226777    0.481164     0.004307
NI1970   NI        0.784922    0.191849    0.481733     0.004307
NI1971   NI        0.792608    0.246772    0.445493     0.004307
NI1972   NI        0.810595    0.200657    0.414958     0.004307
NI1973   NI        0.822529    0.247128    0.476789     0.004307
NI1974   NI        0.838632    0.221158    0.442778     0.004307
NI1975   NI        0.060685    0.275056    0.456300     0.004307
NI1976   NI        0.050365    0.313478    0.443343     0.004307
NI1977   NI        0.087249    0.279893    0.443277     0.004307
NI1978   NI        0.061953    0.345532    0.477306     0.004307
NI1979   NI        0.110808    0.289218    0.455638     0.004307
NI1980   NI        0.100460    0.311632    0.435093     0.004307
NI1981   NI        0.151612    0.269686    0.466750     0.004307
PD1982   PD        0.161372    0.314543    0.479558     0.005394
PD1983   PD        0.197923    0.283787    0.478778     0.005394
NI1984   NI        0.174708    0.291718    0.435314     0.004307
PD1985   PD        0.233500    0.279482    0.445681     0.005394
PD1986   PD        0.235892    0.313776    0.476853     0.005394
PD1987   PD        0.272255    0.278724    0.478929     0.005394
PD1988   PD        0.270031    0.311759    0.445834     0.005394
PD1989   PD        0.307249    0.276308    0.443728     0.005394
PD1990   PD        0.323580    0.332536    0.475847     0.005394
PD1991   PD        0.347610    0.269038    0.466884     0.005394
PD1992   PD        0.341272    0.309575    0.445144     0.005394
PD1993   PD        0.381724    0.278802    0.446558     0.005394
PD1994   PD        0.378467    0.315492    0.479122     0.005394
PD1995   PD        0.414165    0.273668    0.479088     0.005394
PD1996   PD        0.416474    0.321799    0.450816     0.005394
PD1997   PD        0.450610    0.274584    0.444884     0.005394
PD1998   PD        0.452275    0.309087    0.479175     0.005394
PD1999   PD        0.488915    0.276461    0.479591     0.005394
PD2000   PD        0.488291    0.310661    0.444148     0.005394
PD2001   PD        0.530066    0.280043    0.421551     0.005394
PD2002   PD        0.525604    0.312163    0.479639     0.005394
PD2003   PD        0.561816    0.279410    0.477070     0.005394
PD2004   PD        0.561529    0.314051    0.443268     0.005394
PD2005   PD        0.599923    0.280590    0.443284     0.005394
PD2006   PD        0.595756    0.314746    0.478466     0.005394
PD2007   PD        0.658348    0.275930    0.475306     0.005394
PD2008   PD        0.635349    0.316532    0.441527     0.005394
PD2009   PD        0.671286    0.280099    0.440312     0.005394
PD2010   PD        0.671111    0.316948    0.474865     0.005394
PD2011   PD        0.708188    0.281611    0.476609     0.005394
PD2012   PD        0.712184    0.302440    0.451759     0.005394
NI2013   NI        0.758733    0.295574    0.464245     0.004307
NI2014   NI        0.780662    0.318005    0.505594     0.004307
NI2015   NI        0.791986    0.267286    0.490123     0.004307
NI2016   NI        0.775653    0.323282    0.431073     0.004307
NI2017   NI        0.818599    0.282327    0.443228     0.004307
NI2018   NI        0.819295    0.314330    0.476318     0.004307
NI2019   NI        0.857672    0.280652    0.478914     0.004307
NI2020   NI        0.884024    0.302624    0.454949     0.004307
NI2021   NI        0.014538    0.348252    0.446001     0.004307
NI2022   NI        0.015658    0.351602    0.511281     0.004307
NI2023   NI        0.051846    0.350045    0.476870     0.004307
NI2024   NI        0.034839    0.365173    0.418785     0.004307
NI2025   NI        0.054754    0.349120    0.414844     0.004307
PD2026   PD        0.089034    0.382656    0.477015     0.005394
NI2027   NI        0.111223    0.341823    0.465728     0.004307
PD2028   PD        0.129334    0.383009    0.443801     0.005394
NI2029   NI        0.147352    0.325065    0.454032     0.004307
NI2030   NI        0.142120    0.379319    0.452055     0.004307
NI2031   NI        0.193697    0.332873    0.449479     0.004307
PD2032   PD        0.199085    0.383114    0.440629     0.005394
PD2033   PD        0.237302    0.346926    0.442358     0.005394
PD2034   PD        0.212966    0.374902    0.471848     0.005394
PD2035   PD        0.274395    0.346823    0.476577     0.005394
PD2036   PD        0.270757    0.381846    0.443584     0.005394
PD2037   PD        0.309754    0.355488    0.450746     0.005394
PD2038   PD        0.309828    0.380166    0.475963     0.005394
PD2039   PD        0.335924    0.333327    0.484962     0.005394
PD2040   PD        0.346072    0.383928    0.440502     0.005394
PD2041   PD        0.377720    0.346095    0.446674     0.005394
PD2042   PD        0.381105    0.363163    0.493340     0.005394
PD2043   PD        0.422215    0.343487    0.488145     0.005394
PD2044   PD        0.420141    0.361877    0.423469     0.005394
PD2045   PD        0.463038    0.354218    0.438158     0.005394
PD2046   PD        0.477952    0.386572    0.469552     0.005394
PD2047   PD        0.486763    0.348766    0.476399     0.005394
PD2048   PD        0.510313    0.374959    0.436758     0.005394
PD2049   PD        0.525361    0.349145    0.444982     0.005394
PD2050   PD        0.531252    0.386908    0.479382     0.005394
PD2051   PD        0.560716    0.349350    0.477046     0.005394
PD2052   PD        0.561298    0.381674    0.444441     0.005394
PD2053   PD        0.578980    0.357659    0.447415     0.005394
PD2054   PD        0.594942    0.379733    0.481752     0.005394
PD2055   PD        0.634965    0.351377    0.477327     0.005394
PD2056   PD        0.636724    0.382276    0.464800     0.005394
PD2057   PD        0.691086    0.340161    0.434860     0.005394
PD2058   PD        0.687139    0.379584    0.463892     0.005394
PD2059   PD        0.711492    0.348226    0.477310     0.005394
PD2060   PD        0.713018    0.384496    0.443577     0.005394
NI2061   NI        0.759082    0.343137    0.454420     0.004307
PD2062   PD        0.747782    0.383657    0.478742     0.005394
NI2063   NI        0.800371    0.344450    0.465692     0.004307
PD2064   PD        0.787922    0.384348    0.443796     0.005394
NI2065   NI        0.845073    0.323973    0.447919     0.004307
NI2066   NI        0.842341    0.366278    0.470424     0.004307
NI2067   NI        0.859525    0.348228    0.476970     0.004307
NI2068   NI        0.859862    0.381551    0.442982     0.004307
NI2069   NI        0.894930    0.347660    0.444826     0.004307
NI2070   NI        0.894859    0.381403    0.477853     0.004307
NI2071   NI        0.042262    0.427958    0.453646     0.004307
NI2072   NI        0.011585    0.444762    0.481495     0.004307
NI2073   NI        0.052432    0.417283    0.478114     0.004307
NI2074   NI        0.014064    0.452606    0.478014     0.004307
PD2075   PD        0.090748    0.417504    0.442464     0.005394
NI2076   NI        0.083873    0.446514    0.480631     0.004307
PD2077   PD        0.126066    0.416742    0.478620     0.005394
PD2078   PD        0.125748    0.451696    0.441467     0.005394
PD2079   PD        0.164511    0.418307    0.440957     0.005394
PD2080   PD        0.091917    0.449649    0.476066     0.005394
PD2081   PD        0.199579    0.417280    0.474927     0.005394
PD2082   PD        0.198958    0.451943    0.441599     0.005394
PD2083   PD        0.235872    0.415129    0.442441     0.005394
PD2084   PD        0.234365    0.451202    0.475862     0.005394
PD2085   PD        0.263401    0.423362    0.496057     0.005394
PD2086   PD        0.267500    0.440270    0.450685     0.005394
PD2087   PD        0.307685    0.415672    0.446554     0.005394
PD2088   PD        0.307365    0.450927    0.475932     0.005394
PD2089   PD        0.341822    0.391777    0.443533     0.005394
PD2090   PD        0.343246    0.451637    0.442785     0.005394
PD2091   PD        0.385682    0.416222    0.443495     0.005394
PD2092   PD        0.382128    0.452743    0.477979     0.005394
PD2093   PD        0.416312    0.421623    0.477761     0.005394
PD2094   PD        0.418103    0.452826    0.441488     0.005394
PD2095   PD        0.438724    0.403505    0.441071     0.005394
PD2096   PD        0.453776    0.456528    0.475773     0.005394
PD2097   PD        0.478877    0.405696    0.471163     0.005394
PD2098   PD        0.492470    0.451992    0.444263     0.005394
PD2099   PD        0.529264    0.418251    0.441408     0.005394
PD2100   PD        0.540960    0.445783    0.494397     0.005394
PD2101   PD        0.568123    0.416443    0.476024     0.005394
PD2102   PD        0.566381    0.452205    0.441510     0.005394
PD2103   PD        0.606298    0.392864    0.429139     0.005394
PD2104   PD        0.603925    0.454036    0.476342     0.005394
PD2105   PD        0.637795    0.399105    0.465289     0.005394
PD2106   PD        0.641761    0.453469    0.442472     0.005394
PD2107   PD        0.676443    0.418307    0.443263     0.005394
PD2108   PD        0.676528    0.454429    0.477251     0.005394
PD2109   PD        0.714838    0.418792    0.477443     0.005394
PD2110   PD        0.714825    0.452838    0.443345     0.005394
NI2111   NI        0.747691    0.411207    0.456967     0.004307
PD2112   PD        0.751420    0.454059    0.477923     0.005394
PD2113   PD        0.787168    0.418715    0.477944     0.005394
PD2114   PD        0.788537    0.454075    0.443368     0.005394
PD2115   PD        0.824962    0.419269    0.443109     0.005394
PD2116   PD        0.822630    0.452536    0.476329     0.005394
PD2117   PD        0.859851    0.417244    0.477713     0.005394
NI2118   NI        0.859754    0.452422    0.443833     0.004307
NI2119   NI        0.897283    0.422487    0.445559     0.004307
NI2120   NI        0.896909    0.452182    0.477501     0.004307
NI2121   NI        0.014854    0.518780    0.410515     0.004307
NI2122   NI        0.051613    0.482625    0.478001     0.004307
NI2123   NI        0.052286    0.519807    0.444783     0.004307
NI2124   NI        0.076858    0.484904    0.431747     0.004307
NI2125   NI        0.082947    0.514488    0.475177     0.004307
NI2126   NI        0.105886    0.487861    0.465023     0.004307
NI2127   NI        0.099986    0.521154    0.432119     0.004307
PD2128   PD        0.162975    0.485023    0.441068     0.005394
PD2129   PD        0.162074    0.518266    0.477569     0.005394
PD2130   PD        0.190751    0.471452    0.483601     0.005394
PD2131   PD        0.199797    0.519028    0.443161     0.005394
PD2132   PD        0.236583    0.486498    0.440755     0.005394
PD2133   PD        0.235070    0.519587    0.475029     0.005394
PD2134   PD        0.273687    0.487845    0.475195     0.005394
PD2135   PD        0.271108    0.519044    0.443407     0.005394
PD2136   PD        0.285570    0.474398    0.448927     0.005394
PD2137   PD        0.310160    0.521195    0.475787     0.005394
PD2138   PD        0.342066    0.503683    0.482570     0.005394
PD2139   PD        0.345751    0.529773    0.440746     0.005394
PD2140   PD        0.376428    0.473293    0.465560     0.005394
PD2141   PD        0.384191    0.521483    0.477330     0.005394
PD2142   PD        0.419434    0.486016    0.476078     0.005394
PD2143   PD        0.420254    0.521305    0.441773     0.005394
PD2144   PD        0.455275    0.487002    0.441608     0.005394
PD2145   PD        0.456998    0.521012    0.476158     0.005394
PD2146   PD        0.465464    0.483524    0.471937     0.005394
PD2147   PD        0.503335    0.507704    0.464383     0.005394
PD2148   PD        0.547048    0.479036    0.461359     0.005394
PD2149   PD        0.530984    0.522131    0.475362     0.005394
PD2150   PD        0.567091    0.487936    0.476869     0.005394
PD2151   PD        0.567175    0.522563    0.440742     0.005394
PD2152   PD        0.606556    0.478067    0.465645     0.005394
PD2153   PD        0.604501    0.521974    0.476910     0.005394
PD2154   PD        0.639820    0.486668    0.477091     0.005394
PD2155   PD        0.631858    0.529908    0.466478     0.005394
PD2156   PD        0.677728    0.487690    0.443224     0.005394
PD2157   PD        0.677994    0.520623    0.477802     0.005394
PD2158   PD        0.715290    0.487973    0.478963     0.005394
PD2159   PD        0.716730    0.522443    0.442418     0.005394
PD2160   PD        0.751287    0.486396    0.444586     0.005394
PD2161   PD        0.752448    0.522243    0.475782     0.005394
PD2162   PD        0.788530    0.486698    0.478022     0.005394
NI2163   NI        0.818505    0.535980    0.435438     0.004307
PD2164   PD        0.827009    0.488480    0.445275     0.005394
PD2165   PD        0.825305    0.521320    0.478489     0.005394
NI2166   NI        0.861866    0.487101    0.478350     0.004307
NI2167   NI        0.863657    0.520589    0.443550     0.004307
NI2168   NI        0.899186    0.485485    0.442893     0.004307
NI2169   NI        0.051762    0.553122    0.478173     0.004307
NI2170   NI        0.050715    0.588056    0.444253     0.004307
NI2171   NI        0.089180    0.553538    0.445718     0.004307
NI2172   NI        0.052112    0.582884    0.502891     0.004307
PD2173   PD        0.124232    0.555831    0.476996     0.005394
NI2174   NI        0.097662    0.587682    0.452646     0.004307
NI2175   NI        0.130999    0.561910    0.430162     0.004307
NI2176   NI        0.142021    0.600818    0.466931     0.004307
PD2177   PD        0.198215    0.553049    0.476890     0.005394
NI2178   NI        0.177081    0.578041    0.443121     0.004307
PD2179   PD        0.236326    0.552284    0.442756     0.005394
PD2180   PD        0.235883    0.587268    0.475902     0.005394
PD2181   PD        0.271778    0.555581    0.475175     0.005394
PD2182   PD        0.272083    0.589038    0.440445     0.005394
PD2183   PD        0.309993    0.556750    0.441317     0.005394
NI2184   NI        0.284679    0.598017    0.485986     0.004307
PD2185   PD        0.345704    0.556011    0.476106     0.005394
PD2186   PD        0.345037    0.588867    0.440898     0.005394
PD2187   PD        0.360162    0.556638    0.435423     0.005394
PD2188   PD        0.383689    0.589239    0.476272     0.005394
PD2189   PD        0.421295    0.554543    0.477339     0.005394
PD2190   PD        0.411168    0.599801    0.464401     0.005394
PD2191   PD        0.456877    0.555400    0.442918     0.005394
PD2192   PD        0.446537    0.567296    0.465571     0.005394
PD2193   PD        0.493715    0.555797    0.477385     0.005394
PD2194   PD        0.497955    0.595051    0.439994     0.005394
PD2195   PD        0.530398    0.556928    0.442207     0.005394
PD2196   PD        0.552566    0.590052    0.487173     0.005394
PD2197   PD        0.568787    0.556740    0.477014     0.005394
PD2198   PD        0.568321    0.590454    0.442430     0.005394
PD2199   PD        0.605382    0.556335    0.442135     0.005394
PD2200   PD        0.605173    0.591027    0.476465     0.005394
PD2201   PD        0.640242    0.555574    0.477572     0.005394
PD2202   PD        0.641475    0.590781    0.442799     0.005394
PD2203   PD        0.680018    0.557003    0.442369     0.005394
PD2204   PD        0.677402    0.591525    0.477448     0.005394
PD2205   PD        0.716568    0.556618    0.478086     0.005394
PD2206   PD        0.715801    0.589159    0.443481     0.005394
PD2207   PD        0.752433    0.555866    0.442941     0.005394
PD2208   PD        0.752733    0.590273    0.478170     0.005394
NI2209   NI        0.801582    0.581283    0.467984     0.004307
NI2210   NI        0.777475    0.610488    0.435692     0.004307
NI2211   NI        0.840123    0.573002    0.420855     0.004307
NI2212   NI        0.834674    0.566904    0.467061     0.004307
NI2213   NI        0.859775    0.533604    0.488769     0.004307
NI2214   NI        0.879402    0.558491    0.449512     0.004307
NI2215   NI        0.072274    0.628614    0.432626     0.004307
NI2216   NI        0.065294    0.672655    0.446890     0.004307
NI2217   NI        0.124289    0.623381    0.477731     0.004307
NI2218   NI        0.124495    0.656768    0.442467     0.004307
NI2219   NI        0.157251    0.644219    0.455786     0.004307
PD2220   PD        0.161454    0.656914    0.475472     0.005394
PD2221   PD        0.197438    0.623350    0.477970     0.005394
PD2222   PD        0.197260    0.655305    0.441719     0.005394
PD2223   PD        0.236927    0.623265    0.441780     0.005394
NI2224   NI        0.206156    0.658995    0.444036     0.004307
PD2225   PD        0.270762    0.622608    0.475649     0.005394
NI2226   NI        0.244711    0.669048    0.450967     0.004307
PD2227   PD        0.309022    0.624121    0.439429     0.005394
PD2228   PD        0.309414    0.657810    0.476094     0.005394
PD2229   PD        0.345249    0.622864    0.475466     0.005394
PD2230   PD        0.345584    0.656436    0.442848     0.005394
PD2231   PD        0.384465    0.622736    0.442183     0.005394
PD2232   PD        0.381959    0.657837    0.476532     0.005394
PD2233   PD        0.408226    0.633145    0.499482     0.005394
PD2234   PD        0.420889    0.657346    0.441190     0.005394
PD2235   PD        0.447768    0.600608    0.433237     0.005394
NI2236   NI        0.430083    0.670791    0.482029     0.004307
PD2237   PD        0.491776    0.648794    0.505737     0.005394
PD2238   PD        0.517764    0.646912    0.430402     0.005394
PD2239   PD        0.532866    0.624311    0.442778     0.005394
PD2240   PD        0.530501    0.658983    0.476725     0.005394
PD2241   PD        0.569879    0.600631    0.488616     0.005394
PD2242   PD        0.567448    0.658413    0.443034     0.005394
PD2243   PD        0.605428    0.624598    0.442385     0.005394
PD2244   PD        0.604995    0.657937    0.477408     0.005394
PD2245   PD        0.642550    0.625162    0.476742     0.005394
PD2246   PD        0.642511    0.658171    0.442606     0.005394
PD2247   PD        0.677889    0.623406    0.443177     0.005394
PD2248   PD        0.678024    0.658625    0.477035     0.005394
PD2249   PD        0.715793    0.624788    0.477330     0.005394
PD2250   PD        0.716299    0.657790    0.443761     0.005394
PD2251   PD        0.752869    0.624024    0.444382     0.005394
PD2252   PD        0.751549    0.659061    0.477648     0.005394
PD2253   PD        0.788700    0.623334    0.478295     0.005394
PD2254   PD        0.790017    0.658832    0.443315     0.005394
NI2255   NI        0.825665    0.624503    0.443306     0.004307
NI2256   NI        0.833648    0.627589    0.478604     0.004307
NI2257   NI        0.116772    0.663549    0.477110     0.004307
NI2258   NI        0.134902    0.686373    0.452688     0.004307
NI2259   NI        0.171825    0.746792    0.487516     0.004307
NI2260   NI        0.193071    0.697453    0.510992     0.004307
NI2261   NI        0.171042    0.720638    0.449081     0.004307
NI2262   NI        0.221333    0.711170    0.451976     0.004307
PD2263   PD        0.234524    0.726758    0.476640     0.005394
NI2264   NI        0.250375    0.676150    0.448029     0.004307
PD2265   PD        0.271531    0.725659    0.440330     0.005394
PD2266   PD        0.308655    0.691217    0.441637     0.005394
PD2267   PD        0.308770    0.725710    0.474463     0.005394
PD2268   PD        0.345387    0.691011    0.475422     0.005394
PD2269   PD        0.344838    0.726257    0.439509     0.005394
NI2270   NI        0.368582    0.724396    0.450836     0.004307
PD2271   PD        0.383015    0.725966    0.475853     0.005394
PD2272   PD        0.419933    0.692864    0.475906     0.005394
PD2273   PD        0.419892    0.725881    0.442956     0.005394
PD2274   PD        0.457060    0.693470    0.442443     0.005394
PD2275   PD        0.455529    0.725889    0.476604     0.005394
PD2276   PD        0.493536    0.691608    0.476679     0.005394
PD2277   PD        0.494061    0.726543    0.443221     0.005394
PD2278   PD        0.532038    0.693108    0.442359     0.005394
PD2279   PD        0.531811    0.727622    0.476693     0.005394
PD2280   PD        0.569038    0.694152    0.477410     0.005394
PD2281   PD        0.568850    0.726664    0.443423     0.005394
PD2282   PD        0.604068    0.692455    0.442826     0.005394
PD2283   PD        0.606177    0.727964    0.477839     0.005394
NI2284   NI        0.685471    0.697052    0.479862     0.004307
PD2285   PD        0.641264    0.727388    0.443751     0.005394
NI2286   NI        0.690846    0.699083    0.456964     0.004307
NI2287   NI        0.691689    0.730880    0.491114     0.004307
PD2288   PD        0.714631    0.690921    0.477949     0.005394
NI2289   NI        0.716223    0.761298    0.408707     0.004307
NI2290   NI        0.771123    0.720732    0.456241     0.004307
NI2291   NI        0.752907    0.762308    0.441854     0.004307
NI2292   NI        0.789725    0.692665    0.477456     0.004307
NI2293   NI        0.185334    0.784022    0.487530     0.004307
NI2294   NI        0.234919    0.758511    0.440605     0.004307
PD2295   PD        0.272474    0.760820    0.474059     0.005394
NI2296   NI        0.272590    0.793222    0.438151     0.004307
PD2297   PD        0.309071    0.759263    0.440368     0.005394
NI2298   NI        0.270359    0.795033    0.508618     0.004307
PD2299   PD        0.343909    0.759019    0.475488     0.005394
NI2300   NI        0.344480    0.793052    0.440539     0.004307
NI2301   NI        0.387650    0.758983    0.423904     0.004307
NI2302   NI        0.381133    0.794991    0.476360     0.004307
PD2303   PD        0.421243    0.760562    0.476090     0.005394
PD2304   PD        0.420115    0.793852    0.442747     0.005394
PD2305   PD        0.457304    0.760459    0.442654     0.005394
NI2306   NI        0.456160    0.772024    0.485133     0.004307
PD2307   PD        0.493221    0.759948    0.477249     0.005394
NI2308   NI        0.480074    0.807681    0.419178     0.004307
PD2309   PD        0.530767    0.760946    0.442911     0.005394
NI2310   NI        0.531756    0.794183    0.476513     0.004307
PD2311   PD        0.569334    0.760554    0.476754     0.005394
PD2312   PD        0.566258    0.794944    0.441786     0.005394
PD2313   PD        0.605003    0.762310    0.443128     0.005394
NI2314   NI        0.605018    0.795238    0.478446     0.004307
PD2315   PD        0.641128    0.762231    0.477579     0.005394
NI2316   NI        0.652855    0.809052    0.417057     0.004307
NI2317   NI        0.687900    0.776670    0.419812     0.004307
NI2318   NI        0.729565    0.739783    0.459518     0.004307
NI2319   NI        0.404359    0.833732    0.453706     0.004307
NI2320   NI        0.418743    0.830133    0.476258     0.004307
NI2321   NI        0.418422    0.835657    0.441661     0.004307
NI2322   NI        0.494446    0.827459    0.475405     0.004307
NI2323   NI        0.529159    0.829269    0.441665     0.004307
NI2324   NI        0.269256    0.036465    0.509065     0.004307
NI2325   NI        0.306473    0.035390    0.545388     0.004307
NI2326   NI        0.343712    0.036295    0.511366     0.004307
NI2327   NI        0.381156    0.036097    0.545205     0.004307
NI2328   NI        0.417639    0.035066    0.510015     0.004307
NI2329   NI        0.453502    0.001586    0.511137     0.004307
NI2330   NI        0.432587    0.048674    0.554184     0.004307
NI2331   NI        0.478730    0.061226    0.496075     0.004307
NI2332   NI        0.529753    0.037170    0.543991     0.004307
NI2333   NI        0.564754    0.037612    0.508289     0.004307
NI2334   NI        0.608267    0.066077    0.545443     0.004307
NI2335   NI        0.639968    0.039814    0.510619     0.004307
NI2336   NI        0.195175    0.071334    0.545496     0.004307
NI2337   NI        0.232864    0.070871    0.511644     0.004307
NI2338   NI        0.233161    0.105728    0.546521     0.004307
NI2339   NI        0.269185    0.069966    0.546848     0.004307
PD2340   PD        0.269320    0.104086    0.511955     0.005394
NI2341   NI        0.306203    0.070042    0.512173     0.004307
PD2342   PD        0.307090    0.105054    0.545188     0.005394
PD2343   PD        0.345048    0.068618    0.546772     0.005394
PD2344   PD        0.343192    0.104829    0.511493     0.005394
PD2345   PD        0.380296    0.070639    0.511462     0.005394
NI2346   NI        0.362315    0.095708    0.546438     0.004307
PD2347   PD        0.418378    0.068960    0.545971     0.005394
PD2348   PD        0.418352    0.102685    0.511207     0.005394
PD2349   PD        0.454557    0.070897    0.510757     0.005394
PD2350   PD        0.453350    0.103090    0.545805     0.005394
NI2351   NI        0.492984    0.069893    0.544934     0.004307
PD2352   PD        0.490896    0.104868    0.512089     0.005394
PD2353   PD        0.527988    0.071671    0.509677     0.005394
PD2354   PD        0.526656    0.103612    0.546038     0.005394
NI2355   NI        0.568783    0.044912    0.555280     0.004307
NI2356   NI        0.565385    0.104778    0.510902     0.004307
NI2357   NI        0.603289    0.074144    0.510255     0.004307
NI2358   NI        0.640444    0.109331    0.575915     0.004307
NI2359   NI        0.665142    0.078716    0.529200     0.004307
NI2360   NI        0.603815    0.116362    0.533978     0.004307
NI2361   NI        0.664781    0.064279    0.530403     0.004307
NI2362   NI        0.677609    0.110180    0.544001     0.004307
NI2363   NI        0.674323    0.076135    0.507418     0.004307
NI2364   NI        0.121437    0.139638    0.503573     0.004307
NI2365   NI        0.158681    0.140605    0.511813     0.004307
NI2366   NI        0.157918    0.175671    0.546709     0.004307
NI2367   NI        0.195424    0.141321    0.545630     0.004307
NI2368   NI        0.203851    0.160532    0.506556     0.004307
PD2369   PD        0.232515    0.139953    0.513046     0.005394
PD2370   PD        0.233362    0.175450    0.545836     0.005394
NI2371   NI        0.293166    0.149753    0.539109     0.004307
PD2372   PD        0.269773    0.138709    0.545235     0.005394
PD2373   PD        0.306347    0.137970    0.511380     0.005394
PD2374   PD        0.307309    0.171002    0.547301     0.005394
PD2375   PD        0.343359    0.138970    0.546818     0.005394
PD2376   PD        0.328760    0.148972    0.500905     0.005394
PD2377   PD        0.378975    0.139528    0.513768     0.005394
PD2378   PD        0.381440    0.171824    0.547162     0.005394
PD2379   PD        0.417450    0.138592    0.546090     0.005394
PD2380   PD        0.417898    0.171790    0.512417     0.005394
PD2381   PD        0.453535    0.137520    0.511696     0.005394
PD2382   PD        0.454191    0.173277    0.546015     0.005394
PD2383   PD        0.491383    0.139044    0.546570     0.005394
PD2384   PD        0.490484    0.172170    0.513032     0.005394
NI2385   NI        0.539882    0.119157    0.521584     0.004307
PD2386   PD        0.520602    0.211828    0.582042     0.005394
PD2387   PD        0.563968    0.139054    0.546419     0.005394
NI2388   NI        0.570625    0.147814    0.537480     0.004307
NI2389   NI        0.617324    0.130950    0.532679     0.004307
NI2390   NI        0.608689    0.163167    0.562438     0.004307
PD2391   PD        0.638592    0.143889    0.544811     0.005394
NI2392   NI        0.664851    0.173725    0.520151     0.004307
PD2393   PD        0.674525    0.143951    0.508324     0.005394
NI2394   NI        0.684893    0.176375    0.565996     0.004307
NI2395   NI        0.712744    0.144171    0.542951     0.004307
PD2396   PD        0.710803    0.178197    0.511091     0.005394
NI2397   NI        0.747357    0.110980    0.541512     0.004307
NI2398   NI        0.749590    0.160902    0.548515     0.004307
NI2399   NI        0.787102    0.191625    0.528090     0.004307
NI2400   NI        0.051312    0.248110    0.512555     0.004307
NI2401   NI        0.085637    0.213291    0.512959     0.004307
NI2402   NI        0.086447    0.245763    0.547538     0.004307
NI2403   NI        0.123310    0.212439    0.546630     0.004307
PD2404   PD        0.123342    0.245272    0.512210     0.005394
NI2405   NI        0.132597    0.204105    0.526062     0.004307
NI2406   NI        0.130409    0.255999    0.558096     0.004307
PD2407   PD        0.196322    0.209566    0.547295     0.005394
PD2408   PD        0.196797    0.245619    0.511930     0.005394
PD2409   PD        0.232964    0.209789    0.512124     0.005394
PD2410   PD        0.234398    0.243626    0.547855     0.005394
NI2411   NI        0.259988    0.229443    0.557592     0.004307
PD2412   PD        0.270413    0.242787    0.513653     0.005394
PD2413   PD        0.305320    0.208507    0.510941     0.005394
PD2414   PD        0.307978    0.242670    0.548150     0.005394
PD2415   PD        0.322663    0.219131    0.572411     0.005394
PD2416   PD        0.344603    0.242447    0.513828     0.005394
PD2417   PD        0.382524    0.207008    0.513128     0.005394
PD2418   PD        0.380051    0.239873    0.549185     0.005394
PD2419   PD        0.417911    0.206071    0.548288     0.005394
PD2420   PD        0.416296    0.240742    0.513248     0.005394
PD2421   PD        0.452790    0.206995    0.513867     0.005394
PD2422   PD        0.453470    0.240087    0.548436     0.005394
PD2423   PD        0.491305    0.209894    0.545478     0.005394
PD2424   PD        0.490072    0.242468    0.513407     0.005394
PD2425   PD        0.528416    0.209408    0.512696     0.005394
PD2426   PD        0.524539    0.243598    0.547197     0.005394
PD2427   PD        0.577205    0.193915    0.519938     0.005394
PD2428   PD        0.575142    0.229057    0.520214     0.005394
PD2429   PD        0.592342    0.235655    0.525555     0.005394
NI2430   NI        0.627689    0.250110    0.558955     0.004307
PD2431   PD        0.639490    0.212148    0.543734     0.005394
PD2432   PD        0.635910    0.248138    0.510460     0.005394
PD2433   PD        0.677206    0.211536    0.512770     0.005394
PD2434   PD        0.672682    0.246589    0.543808     0.005394
PD2435   PD        0.710575    0.213522    0.546495     0.005394
NI2436   NI        0.722133    0.247314    0.504150     0.004307
NI2437   NI        0.745512    0.214296    0.511408     0.004307
PD2438   PD        0.748149    0.247528    0.544541     0.005394
NI2439   NI        0.758317    0.207582    0.563004     0.004307
NI2440   NI        0.769074    0.240737    0.523578     0.004307
NI2441   NI        0.813777    0.226282    0.506645     0.004307
NI2442   NI        0.833856    0.209653    0.533286     0.004307
NI2443   NI        0.858028    0.247626    0.511696     0.004307
NI2444   NI        0.043082    0.261521    0.565042     0.004307
NI2445   NI        0.052522    0.314829    0.511532     0.004307
NI2446   NI        0.086059    0.278971    0.496955     0.004307
NI2447   NI        0.089206    0.317414    0.545178     0.004307
NI2448   NI        0.126125    0.284287    0.540501     0.004307
NI2449   NI        0.123988    0.311665    0.508913     0.004307
NI2450   NI        0.135680    0.285900    0.502934     0.004307
NI2451   NI        0.170390    0.336614    0.536490     0.004307
PD2452   PD        0.199389    0.280159    0.547487     0.005394
PD2453   PD        0.199534    0.314285    0.511850     0.005394
PD2454   PD        0.234129    0.277957    0.513821     0.005394
PD2455   PD        0.237405    0.314161    0.547849     0.005394
PD2456   PD        0.271723    0.276948    0.546432     0.005394
PD2457   PD        0.273952    0.312268    0.510756     0.005394
PD2458   PD        0.304502    0.277923    0.514563     0.005394
PD2459   PD        0.308078    0.312942    0.547311     0.005394
PD2460   PD        0.345728    0.276108    0.547233     0.005394
PD2461   PD        0.340393    0.310210    0.514985     0.005394
PD2462   PD        0.366716    0.283676    0.544844     0.005394
PD2463   PD        0.379683    0.307927    0.550299     0.005394
PD2464   PD        0.416274    0.275471    0.548263     0.005394
PD2465   PD        0.411810    0.306111    0.512182     0.005394
PD2466   PD        0.450958    0.274865    0.512966     0.005394
PD2467   PD        0.458495    0.286869    0.520093     0.005394
PD2468   PD        0.475231    0.284543    0.572627     0.005394
PD2469   PD        0.496213    0.314814    0.503745     0.005394
PD2470   PD        0.525992    0.276026    0.512889     0.005394
PD2471   PD        0.523734    0.313892    0.544401     0.005394
PD2472   PD        0.561712    0.279859    0.546223     0.005394
PD2473   PD        0.562824    0.312997    0.512514     0.005394
PD2474   PD        0.599630    0.281095    0.511540     0.005394
PD2475   PD        0.596833    0.314896    0.546158     0.005394
PD2476   PD        0.635453    0.281845    0.547011     0.005394
PD2477   PD        0.636511    0.315636    0.510153     0.005394
PD2478   PD        0.676791    0.267812    0.517069     0.005394
PD2479   PD        0.677754    0.302316    0.551141     0.005394
NI2480   NI        0.718404    0.279946    0.536510     0.004307
PD2481   PD        0.709945    0.313111    0.513361     0.005394
NI2482   NI        0.750121    0.281293    0.501657     0.004307
PD2483   PD        0.748465    0.314996    0.544602     0.005394
PD2484   PD        0.785190    0.281347    0.545294     0.005394
PD2485   PD        0.785639    0.316992    0.514845     0.005394
NI2486   NI        0.821788    0.281158    0.512523     0.004307
NI2487   NI        0.821480    0.314348    0.545894     0.004307
NI2488   NI        0.858763    0.279925    0.546935     0.004307
NI2489   NI        0.856415    0.314331    0.510219     0.004307
NI2490   NI        0.031293    0.338858    0.562533     0.004307
NI2491   NI        0.052059    0.390005    0.523636     0.004307
NI2492   NI        0.066775    0.335795    0.502207     0.004307
NI2493   NI        0.085137    0.399065    0.521936     0.004307
NI2494   NI        0.077745    0.358755    0.557896     0.004307
PD2495   PD        0.128593    0.382112    0.512585     0.005394
NI2496   NI        0.151947    0.348974    0.491337     0.004307
PD2497   PD        0.164716    0.384044    0.545172     0.005394
PD2498   PD        0.201423    0.349329    0.547040     0.005394
NI2499   NI        0.174886    0.390633    0.499553     0.004307
PD2500   PD        0.254239    0.328810    0.503205     0.005394
PD2501   PD        0.237121    0.382568    0.545336     0.005394
PD2502   PD        0.271199    0.348615    0.545124     0.005394
PD2503   PD        0.274582    0.381807    0.510217     0.005394
PD2504   PD        0.308801    0.347773    0.510727     0.005394
PD2505   PD        0.310515    0.376259    0.548608     0.005394
PD2506   PD        0.318899    0.363234    0.552224     0.005394
PD2507   PD        0.345455    0.382709    0.516648     0.005394
PD2508   PD        0.382594    0.347517    0.511375     0.005394
PD2509   PD        0.363640    0.373707    0.565246     0.005394
PD2510   PD        0.437769    0.354072    0.546195     0.005394
PD2511   PD        0.410368    0.377227    0.512702     0.005394
PD2512   PD        0.468862    0.348864    0.519118     0.005394
PD2513   PD        0.447270    0.374392    0.548232     0.005394
PD2514   PD        0.490263    0.348609    0.544989     0.005394
PD2515   PD        0.486334    0.380108    0.514511     0.005394
PD2516   PD        0.520832    0.363681    0.511340     0.005394
PD2517   PD        0.543799    0.374554    0.539271     0.005394
PD2518   PD        0.566008    0.331666    0.551523     0.005394
PD2519   PD        0.566980    0.377065    0.531757     0.005394
PD2520   PD        0.603361    0.345983    0.528832     0.005394
PD2521   PD        0.589301    0.367507    0.527831     0.005394
PD2522   PD        0.636830    0.332411    0.552603     0.005394
PD2523   PD        0.637555    0.383621    0.512513     0.005394
PD2524   PD        0.672958    0.349269    0.511330     0.005394
PD2525   PD        0.672846    0.383803    0.544518     0.005394
PD2526   PD        0.708843    0.348057    0.543845     0.005394
PD2527   PD        0.712055    0.384059    0.511131     0.005394
NI2528   NI        0.766692    0.348501    0.503067     0.004307
PD2529   PD        0.747654    0.383294    0.545839     0.005394
PD2530   PD        0.786546    0.351359    0.547498     0.005394
NI2531   NI        0.800851    0.377641    0.500593     0.004307
NI2532   NI        0.823284    0.349996    0.512158     0.004307
PD2533   PD        0.821492    0.383770    0.545030     0.005394
NI2534   NI        0.859901    0.347576    0.544167     0.004307
NI2535   NI        0.859331    0.383553    0.512661     0.004307
NI2536   NI        0.003448    0.426256    0.538992     0.004307
NI2537   NI        0.054808    0.416985    0.544777     0.004307
NI2538   NI        0.052629    0.449937    0.512950     0.004307
PD2539   PD        0.088331    0.417644    0.510083     0.005394
NI2540   NI        0.091255    0.453815    0.544927     0.004307
PD2541   PD        0.127225    0.416924    0.545758     0.005394
PD2542   PD        0.127891    0.451076    0.509769     0.005394
PD2543   PD        0.163886    0.417648    0.510628     0.005394
PD2544   PD        0.163506    0.451172    0.546269     0.005394
PD2545   PD        0.184428    0.425999    0.533561     0.005394
PD2546   PD        0.199774    0.452087    0.509821     0.005394
PD2547   PD        0.221618    0.403349    0.509572     0.005394
PD2548   PD        0.225427    0.442651    0.548749     0.005394
PD2549   PD        0.272432    0.417117    0.545607     0.005394
PD2550   PD        0.300700    0.448621    0.508026     0.005394
PD2551   PD        0.310056    0.416320    0.509826     0.005394
PD2552   PD        0.320098    0.465836    0.545256     0.005394
PD2553   PD        0.345498    0.418843    0.544091     0.005394
PD2554   PD        0.345372    0.453804    0.509026     0.005394
PD2555   PD        0.382503    0.417074    0.510690     0.005394
PD2556   PD        0.379859    0.457976    0.544142     0.005394
PD2557   PD        0.429257    0.400121    0.552157     0.005394
PD2558   PD        0.418084    0.452109    0.511027     0.005394
PD2559   PD        0.444791    0.412506    0.508924     0.005394
PD2560   PD        0.456371    0.452813    0.546039     0.005394
PD2561   PD        0.474652    0.426110    0.543720     0.005394
PD2562   PD        0.493164    0.454036    0.511288     0.005394
PD2563   PD        0.520277    0.413222    0.515464     0.005394
PD2564   PD        0.544212    0.474299    0.530310     0.005394
PD2565   PD        0.562179    0.432611    0.571396     0.005394
PD2566   PD        0.564449    0.427061    0.477462     0.005394
PD2567   PD        0.602969    0.419150    0.510674     0.005394
PD2568   PD        0.610341    0.448089    0.570163     0.005394
PD2569   PD        0.638259    0.418172    0.546203     0.005394
PD2570   PD        0.639966    0.452689    0.511925     0.005394
PD2571   PD        0.675561    0.417109    0.511422     0.005394
PD2572   PD        0.677839    0.451446    0.544568     0.005394
PD2573   PD        0.713464    0.418001    0.546583     0.005394
PD2574   PD        0.712753    0.451634    0.512117     0.005394
NI2575   NI        0.772302    0.407682    0.501571     0.004307
PD2576   PD        0.750886    0.452419    0.546688     0.005394
PD2577   PD        0.787374    0.417307    0.545406     0.005394
PD2578   PD        0.787018    0.452131    0.512293     0.005394
PD2579   PD        0.823039    0.417628    0.510571     0.005394
PD2580   PD        0.822934    0.451235    0.546998     0.005394
NI2581   NI        0.860732    0.416585    0.544534     0.004307
NI2582   NI        0.861020    0.452216    0.512931     0.004307
NI2583   NI        0.897419    0.417072    0.511203     0.004307
NI2584   NI        0.050973    0.482766    0.545498     0.004307
NI2585   NI        0.053808    0.518226    0.513268     0.004307
PD2586   PD        0.089267    0.484662    0.510066     0.005394
PD2587   PD        0.087479    0.517084    0.546327     0.005394
PD2588   PD        0.125772    0.484881    0.546944     0.005394
PD2589   PD        0.126340    0.521201    0.511201     0.005394
NI2590   NI        0.149814    0.491836    0.496145     0.004307
PD2591   PD        0.163402    0.519344    0.544529     0.005394
NI2592   NI        0.189357    0.494507    0.563401     0.004307
PD2593   PD        0.203447    0.520292    0.511358     0.005394
PD2594   PD        0.199814    0.486678    0.546272     0.005394
PD2595   PD        0.223490    0.501920    0.536738     0.005394
PD2596   PD        0.263413    0.476640    0.555822     0.005394
PD2597   PD        0.270039    0.521515    0.508049     0.005394
PD2598   PD        0.307867    0.487158    0.510693     0.005394
PD2599   PD        0.307183    0.521125    0.546551     0.005394
PD2600   PD        0.342315    0.499188    0.567926     0.005394
PD2601   PD        0.345044    0.522568    0.511093     0.005394
PD2602   PD        0.383069    0.487398    0.511667     0.005394
PD2603   PD        0.346239    0.487338    0.545411     0.005394
PD2604   PD        0.419028    0.486326    0.545323     0.005394
PD2605   PD        0.417549    0.521089    0.512070     0.005394
PD2606   PD        0.455468    0.486451    0.511079     0.005394
PD2607   PD        0.455854    0.522199    0.545843     0.005394
PD2608   PD        0.491852    0.489620    0.546186     0.005394
PD2609   PD        0.492622    0.522826    0.510849     0.005394
PD2610   PD        0.521302    0.481521    0.518658     0.005394
PD2611   PD        0.529667    0.521139    0.546864     0.005394
PD2612   PD        0.566081    0.487455    0.545002     0.005394
PD2613   PD        0.561085    0.506923    0.534713     0.005394
PD2614   PD        0.603187    0.488099    0.511215     0.005394
PD2615   PD        0.604000    0.522060    0.545081     0.005394
PD2616   PD        0.640892    0.486217    0.545649     0.005394
PD2617   PD        0.640615    0.520977    0.511268     0.005394
PD2618   PD        0.678814    0.486755    0.510939     0.005394
PD2619   PD        0.677936    0.520740    0.546295     0.005394
PD2620   PD        0.714821    0.486007    0.544945     0.005394
PD2621   PD        0.715314    0.521041    0.511507     0.005394
NI2622   NI        0.743589    0.479640    0.499976     0.004307
PD2623   PD        0.750072    0.520685    0.546317     0.005394
PD2624   PD        0.789056    0.486040    0.545625     0.005394
NI2625   NI        0.780159    0.532610    0.536005     0.004307
NI2626   NI        0.835558    0.493280    0.479579     0.004307
NI2627   NI        0.830679    0.484494    0.552029     0.004307
NI2628   NI        0.859588    0.484657    0.546382     0.004307
NI2629   NI        0.891661    0.530227    0.507952     0.004307
NI2630   NI        0.050308    0.552657    0.545472     0.004307
NI2631   NI        0.051678    0.586878    0.511014     0.004307
PD2632   PD        0.087847    0.553338    0.510816     0.005394
NI2633   NI        0.086278    0.588040    0.543584     0.004307
PD2634   PD        0.125978    0.552686    0.544585     0.005394
PD2635   PD        0.123403    0.587490    0.510388     0.005394
NI2636   NI        0.206561    0.564155    0.520829     0.004307
PD2637   PD        0.159371    0.588872    0.544583     0.005394
PD2638   PD        0.198366    0.553576    0.545516     0.005394
PD2639   PD        0.197179    0.588649    0.509879     0.005394
PD2640   PD        0.249108    0.566300    0.522825     0.005394
PD2641   PD        0.235478    0.591191    0.543817     0.005394
PD2642   PD        0.264404    0.542159    0.555406     0.005394
PD2643   PD        0.273264    0.589193    0.509875     0.005394
PD2644   PD        0.295521    0.549606    0.534833     0.005394
PD2645   PD        0.309614    0.591466    0.545786     0.005394
PD2646   PD        0.345700    0.554257    0.545157     0.005394
PD2647   PD        0.345735    0.588993    0.510919     0.005394
PD2648   PD        0.383941    0.554055    0.510413     0.005394
PD2649   PD        0.382908    0.588005    0.545568     0.005394
PD2650   PD        0.418894    0.556208    0.546190     0.005394
PD2651   PD        0.419122    0.588970    0.510518     0.005394
PD2652   PD        0.431605    0.544357    0.522994     0.005394
PD2653   PD        0.454550    0.589189    0.547127     0.005394
PD2654   PD        0.492753    0.558494    0.545406     0.005394
PD2655   PD        0.494392    0.588918    0.512103     0.005394
PD2656   PD        0.568397    0.551272    0.496828     0.005394
PD2657   PD        0.530719    0.590541    0.544647     0.005394
PD2658   PD        0.566458    0.553714    0.545942     0.005394
PD2659   PD        0.568054    0.589736    0.510910     0.005394
PD2660   PD        0.604880    0.555569    0.510327     0.005394
PD2661   PD        0.602925    0.589416    0.545533     0.005394
PD2662   PD        0.640920    0.554233    0.544390     0.005394
PD2663   PD        0.641221    0.589055    0.511201     0.005394
PD2664   PD        0.678039    0.556305    0.511977     0.005394
PD2665   PD        0.677440    0.589179    0.545608     0.005394
PD2666   PD        0.714806    0.554938    0.545098     0.005394
PD2667   PD        0.715531    0.589580    0.511559     0.005394
PD2668   PD        0.751520    0.555303    0.511485     0.005394
PD2669   PD        0.750929    0.589519    0.546795     0.005394
PD2670   PD        0.787602    0.555832    0.546982     0.005394
PD2671   PD        0.789347    0.589574    0.512093     0.005394
PD2672   PD        0.825268    0.556015    0.514190     0.005394
NI2673   NI        0.824681    0.590258    0.546946     0.004307
NI2674   NI        0.859956    0.556163    0.548412     0.004307
NI2675   NI        0.862227    0.590487    0.512762     0.004307
NI2676   NI        0.086405    0.616346    0.505675     0.004307
NI2677   NI        0.123834    0.622362    0.544163     0.004307
NI2678   NI        0.123851    0.691346    0.544802     0.004307
PD2679   PD        0.161045    0.621114    0.510940     0.005394
NI2680   NI        0.160969    0.654712    0.543947     0.004307
PD2681   PD        0.196951    0.621913    0.544573     0.005394
PD2682   PD        0.196948    0.655628    0.509639     0.005394
PD2683   PD        0.233958    0.623000    0.509596     0.005394
PD2684   PD        0.233707    0.658067    0.543608     0.005394
PD2685   PD        0.270659    0.621039    0.543951     0.005394
PD2686   PD        0.270453    0.656667    0.509309     0.005394
PD2687   PD        0.307244    0.622515    0.510115     0.005394
PD2688   PD        0.306445    0.657492    0.545011     0.005394
PD2689   PD        0.346195    0.622384    0.543612     0.005394
PD2690   PD        0.346183    0.656811    0.510435     0.005394
PD2691   PD        0.382803    0.623504    0.510177     0.005394
PD2692   PD        0.383598    0.656687    0.546870     0.005394
PD2693   PD        0.418807    0.622945    0.545551     0.005394
PD2694   PD        0.418852    0.660145    0.511219     0.005394
PD2695   PD        0.456222    0.623644    0.512586     0.005394
PD2696   PD        0.456559    0.658942    0.544388     0.005394
PD2697   PD        0.492726    0.623622    0.544538     0.005394
PD2698   PD        0.493966    0.658602    0.511539     0.005394
PD2699   PD        0.531063    0.624851    0.511940     0.005394
PD2700   PD        0.531763    0.657686    0.545257     0.005394
PD2701   PD        0.567120    0.624378    0.544729     0.005394
PD2702   PD        0.567632    0.658838    0.510115     0.005394
PD2703   PD        0.604692    0.623884    0.511617     0.005394
PD2704   PD        0.603722    0.657823    0.546130     0.005394
PD2705   PD        0.640162    0.623254    0.544634     0.005394
PD2706   PD        0.642493    0.658742    0.511350     0.005394
PD2707   PD        0.678911    0.624797    0.511143     0.005394
NI2708   NI        0.698952    0.668564    0.545609     0.004307
PD2709   PD        0.715050    0.622997    0.546321     0.005394
PD2710   PD        0.715424    0.658074    0.511929     0.005394
NI2711   NI        0.750530    0.656608    0.550736     0.004307
NI2712   NI        0.749665    0.656983    0.551559     0.004307
NI2713   NI        0.786620    0.643444    0.556946     0.004307
NI2714   NI        0.788269    0.658824    0.512297     0.004307
NI2715   NI        0.830794    0.604055    0.497609     0.004307
NI2716   NI        0.159574    0.688862    0.509643     0.004307
PD2717   PD        0.198072    0.691634    0.543279     0.005394
NI2718   NI        0.195753    0.725069    0.509467     0.004307
PD2719   PD        0.234189    0.692305    0.510341     0.005394
NI2720   NI        0.234814    0.724653    0.542048     0.004307
NI2721   NI        0.241323    0.717535    0.532717     0.004307
PD2722   PD        0.272353    0.690482    0.474884     0.005394
PD2723   PD        0.308331    0.691009    0.510617     0.005394
NI2724   NI        0.287446    0.708322    0.550808     0.004307
PD2725   PD        0.345260    0.691180    0.543762     0.005394
PD2726   PD        0.345099    0.725035    0.508946     0.005394
PD2727   PD        0.380305    0.691347    0.510117     0.005394
PD2728   PD        0.381520    0.727447    0.544514     0.005394
PD2729   PD        0.419907    0.693019    0.545899     0.005394
NI2730   NI        0.393196    0.740565    0.508661     0.004307
PD2731   PD        0.457137    0.693349    0.510580     0.005394
PD2732   PD        0.456640    0.726815    0.543977     0.005394
PD2733   PD        0.494031    0.691078    0.544612     0.005394
NI2734   NI        0.519153    0.714873    0.524355     0.004307
PD2735   PD        0.530844    0.692228    0.510975     0.005394
NI2736   NI        0.529262    0.737291    0.522052     0.004307
NI2737   NI        0.558278    0.709795    0.559554     0.004307
PD2738   PD        0.568520    0.728231    0.511630     0.005394
PD2739   PD        0.603791    0.692168    0.510970     0.005394
PD2740   PD        0.605611    0.728264    0.545575     0.005394
PD2741   PD        0.640786    0.692509    0.546071     0.005394
PD2742   PD        0.642542    0.726488    0.512439     0.005394
PD2743   PD        0.678392    0.693772    0.511307     0.005394
NI2744   NI        0.664024    0.727729    0.570410     0.004307
NI2745   NI        0.714536    0.691518    0.547324     0.004307
NI2746   NI        0.691953    0.738902    0.494863     0.004307
NI2747   NI        0.748410    0.692406    0.514238     0.004307
NI2748   NI        0.234825    0.759671    0.510205     0.004307
NI2749   NI        0.271594    0.789001    0.554698     0.004307
NI2750   NI        0.268966    0.796053    0.509093     0.004307
PD2751   PD        0.307530    0.759128    0.508880     0.005394
NI2752   NI        0.308093    0.793920    0.542105     0.004307
NI2753   NI        0.357392    0.772064    0.568490     0.004307
NI2754   NI        0.344577    0.793551    0.508058     0.004307
PD2755   PD        0.382446    0.761765    0.510422     0.005394
NI2756   NI        0.381598    0.794102    0.544181     0.004307
PD2757   PD        0.419479    0.760356    0.543960     0.005394
PD2758   PD        0.417867    0.793953    0.509984     0.005394
NI2759   NI        0.425812    0.761614    0.523361     0.004307
PD2760   PD        0.455441    0.795010    0.544955     0.005394
PD2761   PD        0.493902    0.761386    0.544630     0.005394
PD2762   PD        0.493356    0.794315    0.512082     0.005394
PD2763   PD        0.530514    0.761559    0.512176     0.005394
NI2764   NI        0.530114    0.794207    0.546475     0.004307
PD2765   PD        0.567399    0.762263    0.545598     0.005394
NI2766   NI        0.557150    0.771546    0.500021     0.004307
PD2767   PD        0.605347    0.760762    0.511368     0.005394
NI2768   NI        0.603279    0.829768    0.510083     0.004307
PD2769   PD        0.640501    0.761558    0.545919     0.005394
NI2770   NI        0.673388    0.804697    0.497315     0.004307
NI2771   NI        0.677806    0.760361    0.511478     0.004307
NI2772   NI        0.422061    0.841248    0.522271     0.004307
NI2773   NI        0.344001    0.035164    0.580795     0.004307
NI2774   NI        0.381754    0.035481    0.613824     0.004307
NI2775   NI        0.444932    0.011681    0.583500     0.004307
NI2776   NI        0.443890    0.040206    0.599243     0.004307
NI2777   NI        0.493883    0.036132    0.577706     0.004307
NI2778   NI        0.530412    0.036355    0.610140     0.004307
NI2779   NI        0.567446    0.040918    0.579213     0.004307
NI2780   NI        0.194888    0.105307    0.578765     0.004307
NI2781   NI        0.223040    0.090437    0.632757     0.004307
NI2782   NI        0.260500    0.082473    0.601786     0.004307
NI2783   NI        0.257815    0.125892    0.585806     0.004307
NI2784   NI        0.307627    0.033920    0.613458     0.004307
NI2785   NI        0.307141    0.101376    0.613695     0.004307
NI2786   NI        0.344770    0.069157    0.612409     0.004307
PD2787   PD        0.382284    0.106060    0.546653     0.005394
PD2788   PD        0.380349    0.069305    0.579870     0.005394
PD2789   PD        0.380756    0.102202    0.614724     0.005394
NI2790   NI        0.417287    0.036325    0.579499     0.004307
PD2791   PD        0.415756    0.102758    0.580360     0.005394
NI2792   NI        0.428275    0.090240    0.601823     0.004307
PD2793   PD        0.455224    0.102808    0.614544     0.005394
NI2794   NI        0.488354    0.058180    0.586388     0.004307
PD2795   PD        0.490678    0.103407    0.578996     0.005394
NI2796   NI        0.558541    0.064109    0.599649     0.004307
PD2797   PD        0.529222    0.104997    0.613095     0.005394
NI2798   NI        0.568433    0.073087    0.612828     0.004307
PD2799   PD        0.565155    0.106569    0.578960     0.005394
NI2800   NI        0.599953    0.073817    0.579995     0.004307
NI2801   NI        0.603116    0.110436    0.610928     0.004307
NI2802   NI        0.682398    0.069092    0.612320     0.004307
NI2803   NI        0.639590    0.080426    0.609361     0.004307
NI2804   NI        0.669276    0.073861    0.638292     0.004307
NI2805   NI        0.713685    0.110710    0.576691     0.004307
NI2806   NI        0.122247    0.177717    0.581743     0.004307
NI2807   NI        0.158842    0.142191    0.581296     0.004307
NI2808   NI        0.158455    0.175338    0.612849     0.004307
NI2809   NI        0.197443    0.140219    0.615347     0.004307
NI2810   NI        0.195143    0.174575    0.579866     0.004307
NI2811   NI        0.210924    0.137490    0.567566     0.004307
NI2812   NI        0.232930    0.172684    0.612471     0.004307
NI2813   NI        0.269659    0.136359    0.613581     0.004307
PD2814   PD        0.270911    0.171721    0.579841     0.005394
PD2815   PD        0.307706    0.138454    0.579883     0.005394
PD2816   PD        0.306829    0.170133    0.614587     0.005394
PD2817   PD        0.343896    0.137279    0.614503     0.005394
PD2818   PD        0.344920    0.172323    0.581893     0.005394
PD2819   PD        0.381743    0.136807    0.581185     0.005394
PD2820   PD        0.380177    0.170919    0.615472     0.005394
PD2821   PD        0.417757    0.135378    0.614190     0.005394
PD2822   PD        0.418153    0.171673    0.582361     0.005394
PD2823   PD        0.455278    0.137129    0.579912     0.005394
PD2824   PD        0.454000    0.168935    0.616319     0.005394
PD2825   PD        0.492575    0.136402    0.614575     0.005394
PD2826   PD        0.497840    0.174399    0.561733     0.005394
PD2827   PD        0.529077    0.137416    0.579570     0.005394
NI2828   NI        0.502148    0.158401    0.628666     0.004307
NI2829   NI        0.565566    0.141145    0.613354     0.004307
NI2830   NI        0.562756    0.161783    0.587312     0.004307
NI2831   NI        0.603126    0.143276    0.576565     0.004307
PD2832   PD        0.601907    0.175310    0.611229     0.005394
NI2833   NI        0.638236    0.143534    0.612848     0.004307
PD2834   PD        0.637792    0.177802    0.579663     0.005394
NI2835   NI        0.676744    0.143957    0.579023     0.004307
PD2836   PD        0.674570    0.177486    0.613417     0.005394
NI2837   NI        0.726151    0.139574    0.624934     0.004307
NI2838   NI        0.719851    0.193610    0.595709     0.004307
NI2839   NI        0.767280    0.128996    0.579729     0.004307
NI2840   NI        0.759170    0.168245    0.646006     0.004307
NI2841   NI        0.792965    0.163463    0.566994     0.004307
NI2842   NI        0.089149    0.248104    0.615540     0.004307
NI2843   NI        0.122366    0.209644    0.614928     0.004307
NI2844   NI        0.124398    0.245760    0.580525     0.004307
NI2845   NI        0.127977    0.209457    0.567310     0.004307
NI2846   NI        0.161288    0.244109    0.617050     0.004307
NI2847   NI        0.196218    0.206637    0.613941     0.004307
PD2848   PD        0.198805    0.243888    0.581198     0.005394
NI2849   NI        0.220759    0.201714    0.570448     0.004307
NI2850   NI        0.223585    0.268984    0.627429     0.004307
NI2851   NI        0.247148    0.200389    0.609113     0.004307
NI2852   NI        0.262018    0.225077    0.566869     0.004307
NI2853   NI        0.307558    0.209043    0.557811     0.004307
PD2854   PD        0.306928    0.239564    0.615830     0.005394
PD2855   PD        0.343015    0.204732    0.614779     0.005394
PD2856   PD        0.344341    0.239915    0.583068     0.005394
NI2857   NI        0.369107    0.199035    0.582324     0.004307
PD2858   PD        0.380204    0.237108    0.616763     0.005394
PD2859   PD        0.418928    0.204928    0.616402     0.005394
PD2860   PD        0.418629    0.239211    0.583879     0.005394
PD2861   PD        0.454848    0.205598    0.581206     0.005394
PD2862   PD        0.454938    0.238752    0.615558     0.005394
NI2863   NI        0.501792    0.198013    0.603851     0.004307
PD2864   PD        0.490839    0.240031    0.582298     0.005394
PD2865   PD        0.529168    0.207927    0.580425     0.005394
PD2866   PD        0.527621    0.240883    0.615784     0.005394
NI2867   NI        0.572863    0.205810    0.600522     0.004307
PD2868   PD        0.561521    0.246146    0.580106     0.005394
NI2869   NI        0.607485    0.191417    0.563726     0.004307
PD2870   PD        0.599255    0.247482    0.614957     0.005394
PD2871   PD        0.638153    0.211300    0.610839     0.005394
PD2872   PD        0.636206    0.245447    0.580859     0.005394
PD2873   PD        0.673224    0.213019    0.579224     0.005394
PD2874   PD        0.671957    0.247290    0.613691     0.005394
NI2875   NI        0.708899    0.212612    0.612930     0.004307
NI2876   NI        0.712462    0.230095    0.604804     0.004307
NI2877   NI        0.747160    0.212810    0.577945     0.004307
NI2878   NI        0.747773    0.223975    0.623047     0.004307
NI2879   NI        0.786740    0.178003    0.645030     0.004307
NI2880   NI        0.783608    0.247162    0.579708     0.004307
NI2881   NI        0.854632    0.243932    0.580511     0.004307
NI2882   NI        0.053313    0.316649    0.581756     0.004307
NI2883   NI        0.090715    0.280528    0.578599     0.004307
NI2884   NI        0.089078    0.314081    0.614343     0.004307
NI2885   NI        0.129471    0.280698    0.605208     0.004307
NI2886   NI        0.119742    0.336347    0.571642     0.004307
PD2887   PD        0.162616    0.279894    0.581423     0.005394
PD2888   PD        0.165262    0.314164    0.614828     0.005394
NI2889   NI        0.176593    0.267132    0.604881     0.004307
NI2890   NI        0.178805    0.303351    0.570561     0.004307
PD2891   PD        0.236140    0.278004    0.581485     0.005394
NI2892   NI        0.232065    0.325010    0.632043     0.004307
PD2893   PD        0.270512    0.274983    0.618057     0.005394
PD2894   PD        0.238693    0.313159    0.615878     0.005394
NI2895   NI        0.291644    0.270921    0.584800     0.004307
PD2896   PD        0.307846    0.307140    0.619669     0.005394
NI2897   NI        0.334494    0.292170    0.635320     0.004307
PD2898   PD        0.343319    0.319738    0.566739     0.005394
PD2899   PD        0.381766    0.274025    0.584831     0.005394
PD2900   PD        0.406547    0.303172    0.621428     0.005394
PD2901   PD        0.408715    0.294250    0.621412     0.005394
PD2902   PD        0.426698    0.296678    0.578270     0.005394
PD2903   PD        0.452025    0.249684    0.547209     0.005394
PD2904   PD        0.456345    0.304334    0.619931     0.005394
PD2905   PD        0.491710    0.271819    0.618065     0.005394
PD2906   PD        0.487397    0.308842    0.584263     0.005394
PD2907   PD        0.526124    0.279803    0.580208     0.005394
PD2908   PD        0.533505    0.301789    0.622549     0.005394
PD2909   PD        0.555574    0.267444    0.594148     0.005394
PD2910   PD        0.567049    0.308673    0.584212     0.005394
PD2911   PD        0.599635    0.280347    0.579487     0.005394
NI2912   NI        0.591650    0.289076    0.622170     0.004307
PD2913   PD        0.637700    0.280785    0.611910     0.005394
PD2914   PD        0.653585    0.308677    0.589442     0.005394
NI2915   NI        0.694619    0.287487    0.595380     0.004307
PD2916   PD        0.673258    0.314673    0.612768     0.005394
NI2917   NI        0.730458    0.290653    0.611424     0.004307
NI2918   NI        0.701325    0.312444    0.608746     0.004307
PD2919   PD        0.744954    0.281131    0.578548     0.005394
NI2920   NI        0.763371    0.321553    0.625014     0.004307
NI2921   NI        0.782892    0.280022    0.612968     0.004307
NI2922   NI        0.828985    0.284429    0.583867     0.004307
NI2923   NI        0.822312    0.281414    0.578256     0.004307
NI2924   NI        0.856980    0.280273    0.614611     0.004307
NI2925   NI        0.857359    0.314255    0.580204     0.004307
NI2926   NI        0.025996    0.338414    0.642924     0.004307
NI2927   NI        0.017041    0.381026    0.550938     0.004307
NI2928   NI        0.090909    0.349059    0.582541     0.004307
NI2929   NI        0.084789    0.377538    0.599879     0.004307
PD2930   PD        0.125771    0.349629    0.614909     0.005394
PD2931   PD        0.126218    0.383190    0.580236     0.005394
PD2932   PD        0.166496    0.348593    0.582149     0.005394
NI2933   NI        0.154860    0.369693    0.618407     0.004307
NI2934   NI        0.175434    0.346782    0.636275     0.004307
PD2935   PD        0.201171    0.383942    0.580335     0.005394
PD2936   PD        0.236177    0.352172    0.578156     0.005394
PD2937   PD        0.239573    0.385243    0.612284     0.005394
PD2938   PD        0.272946    0.349430    0.614439     0.005394
PD2939   PD        0.247305    0.400483    0.588019     0.005394
PD2940   PD        0.311920    0.349250    0.580193     0.005394
PD2941   PD        0.310133    0.363473    0.597783     0.005394
PD2942   PD        0.346771    0.339066    0.620184     0.005394
PD2943   PD        0.346683    0.384913    0.579970     0.005394
PD2944   PD        0.387774    0.324701    0.589515     0.005394
PD2945   PD        0.381339    0.374616    0.615524     0.005394
PD2946   PD        0.420712    0.340878    0.623044     0.005394
PD2947   PD        0.418095    0.375797    0.583680     0.005394
PD2948   PD        0.447346    0.365711    0.590823     0.005394
PD2949   PD        0.450518    0.388286    0.631745     0.005394
PD2950   PD        0.490059    0.343099    0.619254     0.005394
PD2951   PD        0.495607    0.405611    0.578585     0.005394
PD2952   PD        0.527670    0.349506    0.578221     0.005394
PD2953   PD        0.533597    0.369298    0.620711     0.005394
PD2954   PD        0.575785    0.345538    0.605657     0.005394
PD2955   PD        0.563853    0.383000    0.579934     0.005394
PD2956   PD        0.599247    0.348744    0.581363     0.005394
PD2957   PD        0.602875    0.384766    0.614733     0.005394
PD2958   PD        0.638150    0.349836    0.613237     0.005394
PD2959   PD        0.637384    0.383226    0.580450     0.005394
PD2960   PD        0.673390    0.350602    0.580046     0.005394
PD2961   PD        0.673693    0.384402    0.614345     0.005394
NI2962   NI        0.723418    0.378138    0.602741     0.004307
PD2963   PD        0.748603    0.416390    0.579127     0.005394
PD2964   PD        0.749071    0.348283    0.579431     0.005394
NI2965   NI        0.723503    0.391161    0.605893     0.004307
NI2966   NI        0.803594    0.366593    0.588355     0.004307
PD2967   PD        0.785078    0.381269    0.579796     0.005394
NI2968   NI        0.821924    0.349771    0.580193     0.004307
NI2969   NI        0.823455    0.381931    0.614423     0.004307
NI2970   NI        0.858294    0.348517    0.614543     0.004307
NI2971   NI        0.860363    0.382808    0.579822     0.004307
NI2972   NI        0.030195    0.409854    0.603220     0.004307
NI2973   NI        0.095126    0.480748    0.574363     0.004307
NI2974   NI        0.090347    0.418211    0.578711     0.004307
NI2975   NI        0.088539    0.451554    0.612743     0.004307
NI2976   NI        0.127055    0.418135    0.614474     0.004307
PD2977   PD        0.128002    0.450810    0.579525     0.005394
PD2978   PD        0.163996    0.417670    0.579876     0.005394
PD2979   PD        0.163245    0.451259    0.612621     0.005394
PD2980   PD        0.202988    0.418884    0.613293     0.005394
PD2981   PD        0.199994    0.453432    0.579665     0.005394
PD2982   PD        0.235838    0.418686    0.579927     0.005394
PD2983   PD        0.237874    0.451869    0.614452     0.005394
PD2984   PD        0.271431    0.418659    0.614194     0.005394
PD2985   PD        0.250714    0.443510    0.588517     0.005394
PD2986   PD        0.285545    0.407596    0.590828     0.005394
PD2987   PD        0.324000    0.461166    0.634048     0.005394
PD2988   PD        0.344853    0.420292    0.614499     0.005394
PD2989   PD        0.346698    0.453923    0.578872     0.005394
PD2990   PD        0.380888    0.418155    0.579211     0.005394
PD2991   PD        0.366548    0.441999    0.612218     0.005394
PD2992   PD        0.429702    0.416531    0.627864     0.005394
PD2993   PD        0.397994    0.435727    0.573623     0.005394
PD2994   PD        0.455145    0.408801    0.590250     0.005394
PD2995   PD        0.456381    0.454762    0.613360     0.005394
PD2996   PD        0.520491    0.407996    0.642080     0.005394
PD2997   PD        0.491634    0.452993    0.580173     0.005394
PD2998   PD        0.525630    0.413608    0.585881     0.005394
PD2999   PD        0.528467    0.454634    0.613251     0.005394
PD3000   PD        0.564451    0.421547    0.615551     0.005394
PD3001   PD        0.595150    0.455773    0.590993     0.005394
PD3002   PD        0.602838    0.416872    0.581734     0.005394
PD3003   PD        0.602484    0.454072    0.614891     0.005394
NI3004   NI        0.648610    0.432602    0.633364     0.004307
PD3005   PD        0.638705    0.451699    0.579612     0.005394
PD3006   PD        0.675199    0.416832    0.579622     0.005394
PD3007   PD        0.672038    0.441937    0.613797     0.005394
PD3008   PD        0.713187    0.416293    0.614241     0.005394
PD3009   PD        0.713367    0.452252    0.580011     0.005394
NI3010   NI        0.760922    0.423354    0.561683     0.004307
PD3011   PD        0.749993    0.451935    0.615434     0.005394
NI3012   NI        0.784874    0.447860    0.646572     0.004307
PD3013   PD        0.788246    0.452309    0.580104     0.005394
NI3014   NI        0.824521    0.417558    0.580281     0.004307
NI3015   NI        0.821639    0.451857    0.615961     0.004307
NI3016   NI        0.897496    0.418708    0.578102     0.004307
NI3017   NI        0.872654    0.424184    0.592588     0.004307
NI3018   NI        0.053382    0.484299    0.613335     0.004307
NI3019   NI        0.051415    0.517918    0.580971     0.004307
PD3020   PD        0.088732    0.484695    0.580273     0.005394
NI3021   NI        0.091178    0.520148    0.613235     0.004307
PD3022   PD        0.124737    0.485425    0.614352     0.005394
PD3023   PD        0.124621    0.519283    0.580576     0.005394
PD3024   PD        0.162654    0.486867    0.580443     0.005394
PD3025   PD        0.162045    0.520958    0.614298     0.005394
PD3026   PD        0.199178    0.486156    0.614059     0.005394
PD3027   PD        0.200635    0.518576    0.576908     0.005394
PD3028   PD        0.237746    0.486792    0.579252     0.005394
PD3029   PD        0.232446    0.524026    0.616701     0.005394
PD3030   PD        0.265256    0.489016    0.602099     0.005394
NI3031   NI        0.249760    0.510824    0.589124     0.004307
PD3032   PD        0.307436    0.490991    0.580528     0.005394
PD3033   PD        0.309297    0.522600    0.615273     0.005394
PD3034   PD        0.343514    0.489927    0.613589     0.005394
PD3035   PD        0.341357    0.535889    0.602917     0.005394
PD3036   PD        0.381462    0.486916    0.579822     0.005394
PD3037   PD        0.368405    0.521194    0.639948     0.005394
PD3038   PD        0.417194    0.489048    0.615844     0.005394
PD3039   PD        0.420597    0.522056    0.578833     0.005394
PD3040   PD        0.455116    0.489743    0.580024     0.005394
PD3041   PD        0.454499    0.523682    0.613717     0.005394
PD3042   PD        0.492890    0.488052    0.615013     0.005394
PD3043   PD        0.491533    0.522932    0.581205     0.005394
PD3044   PD        0.544081    0.475509    0.570765     0.005394
PD3045   PD        0.528749    0.523364    0.615797     0.005394
PD3046   PD        0.566732    0.486164    0.614269     0.005394
PD3047   PD        0.563819    0.521370    0.580971     0.005394
PD3048   PD        0.629399    0.488968    0.589248     0.005394
PD3049   PD        0.602317    0.521444    0.613453     0.005394
PD3050   PD        0.640035    0.485725    0.613724     0.005394
PD3051   PD        0.638301    0.521883    0.578232     0.005394
PD3052   PD        0.678192    0.485989    0.578259     0.005394
PD3053   PD        0.676471    0.519394    0.613602     0.005394
PD3054   PD        0.714049    0.486051    0.613254     0.005394
PD3055   PD        0.713113    0.521355    0.580799     0.005394
PD3056   PD        0.749308    0.487714    0.580301     0.005394
PD3057   PD        0.751530    0.519085    0.614925     0.005394
PD3058   PD        0.786766    0.483462    0.613086     0.005394
PD3059   PD        0.787591    0.520840    0.580330     0.005394
PD3060   PD        0.824945    0.486440    0.581071     0.005394
NI3061   NI        0.860061    0.518882    0.650271     0.004307
NI3062   NI        0.861481    0.484976    0.614288     0.004307
NI3063   NI        0.861005    0.520344    0.580794     0.004307
NI3064   NI        0.086893    0.553397    0.577189     0.004307
NI3065   NI        0.053086    0.554420    0.614023     0.004307
NI3066   NI        0.124753    0.555807    0.613186     0.004307
PD3067   PD        0.124493    0.586526    0.578086     0.005394
PD3068   PD        0.160797    0.554025    0.578575     0.005394
NI3069   NI        0.116909    0.591729    0.618884     0.004307
PD3070   PD        0.195703    0.555790    0.612927     0.005394
PD3071   PD        0.195779    0.589145    0.579319     0.005394
PD3072   PD        0.234824    0.554195    0.580822     0.005394
PD3073   PD        0.234482    0.589750    0.614019     0.005394
PD3074   PD        0.270584    0.556946    0.614434     0.005394
PD3075   PD        0.273150    0.592638    0.580287     0.005394
PD3076   PD        0.307206    0.555453    0.579409     0.005394
NI3077   NI        0.291185    0.600474    0.624494     0.004307
PD3078   PD        0.344488    0.558784    0.614919     0.005394
PD3079   PD        0.344236    0.591082    0.579064     0.005394
PD3080   PD        0.382593    0.556632    0.581352     0.005394
PD3081   PD        0.381677    0.591823    0.614084     0.005394
PD3082   PD        0.414117    0.526344    0.586140     0.005394
PD3083   PD        0.419343    0.590530    0.580781     0.005394
PD3084   PD        0.455486    0.556683    0.578331     0.005394
PD3085   PD        0.455191    0.591633    0.614602     0.005394
PD3086   PD        0.491586    0.557687    0.616056     0.005394
PD3087   PD        0.493762    0.588612    0.580173     0.005394
PD3088   PD        0.530276    0.555455    0.578912     0.005394
PD3089   PD        0.529745    0.592095    0.615281     0.005394
PD3090   PD        0.566123    0.556633    0.613793     0.005394
PD3091   PD        0.602042    0.590554    0.614161     0.005394
PD3092   PD        0.626154    0.556521    0.589767     0.005394
NI3093   NI        0.609657    0.576747    0.628410     0.004307
PD3094   PD        0.638689    0.555710    0.613109     0.005394
PD3095   PD        0.639620    0.587927    0.578837     0.005394
PD3096   PD        0.675743    0.555444    0.580754     0.005394
PD3097   PD        0.676088    0.589464    0.612336     0.005394
NI3098   NI        0.735076    0.565263    0.614372     0.004307
PD3099   PD        0.713901    0.589202    0.580120     0.005394
PD3100   PD        0.750684    0.554872    0.581249     0.005394
NI3101   NI        0.762864    0.564065    0.626233     0.004307
NI3102   NI        0.786551    0.554427    0.616294     0.004307
PD3103   PD        0.786897    0.587854    0.582263     0.005394
NI3104   NI        0.823568    0.554337    0.581091     0.004307
NI3105   NI        0.823500    0.589246    0.614721     0.004307
NI3106   NI        0.122465    0.623342    0.611779     0.004307
NI3107   NI        0.123141    0.657125    0.576881     0.004307
PD3108   PD        0.161480    0.622766    0.579104     0.005394
NI3109   NI        0.170444    0.657233    0.613900     0.004307
NI3110   NI        0.177539    0.607192    0.621726     0.004307
NI3111   NI        0.184047    0.634971    0.589554     0.004307
PD3112   PD        0.233020    0.624439    0.579986     0.005394
PD3113   PD        0.235532    0.657299    0.613972     0.005394
PD3114   PD        0.273081    0.624324    0.611855     0.005394
PD3115   PD        0.270364    0.691368    0.545235     0.005394
PD3116   PD        0.308734    0.625239    0.580001     0.005394
PD3117   PD        0.309384    0.659797    0.614192     0.005394
PD3118   PD        0.346040    0.624811    0.614957     0.005394
PD3119   PD        0.345761    0.659259    0.579180     0.005394
PD3120   PD        0.383609    0.623621    0.579782     0.005394
NI3121   NI        0.367826    0.662270    0.627954     0.004307
PD3122   PD        0.418791    0.625285    0.614014     0.005394
PD3123   PD        0.418902    0.659013    0.578511     0.005394
PD3124   PD        0.456177    0.626121    0.579486     0.005394
PD3125   PD        0.456101    0.658905    0.613671     0.005394
NI3126   NI        0.518435    0.635495    0.602788     0.004307
PD3127   PD        0.492584    0.658057    0.578322     0.005394
PD3128   PD        0.530362    0.624103    0.579833     0.005394
PD3129   PD        0.530357    0.658489    0.613364     0.005394
PD3130   PD        0.566018    0.623731    0.613413     0.005394
PD3131   PD        0.603220    0.692033    0.578000     0.005394
PD3132   PD        0.604543    0.623976    0.578994     0.005394
NI3133   NI        0.594781    0.695831    0.576877     0.004307
PD3134   PD        0.641107    0.623086    0.613320     0.005394
NI3135   NI        0.628261    0.682561    0.593540     0.004307
PD3136   PD        0.677243    0.623504    0.579993     0.005394
PD3137   PD        0.676821    0.657500    0.613401     0.005394
NI3138   NI        0.680780    0.628354    0.619048     0.004307
PD3139   PD        0.714883    0.657024    0.580016     0.005394
PD3140   PD        0.751054    0.622679    0.581138     0.005394
NI3141   NI        0.786404    0.655303    0.589537     0.004307
NI3142   NI        0.792158    0.644881    0.645880     0.004307
NI3143   NI        0.787750    0.658408    0.580987     0.004307
NI3144   NI        0.162171    0.664671    0.564857     0.004307
NI3145   NI        0.197223    0.691794    0.612207     0.004307
NI3146   NI        0.197611    0.725569    0.578152     0.004307
NI3147   NI        0.220631    0.683978    0.557484     0.004307
NI3148   NI        0.239898    0.710987    0.626933     0.004307
PD3149   PD        0.273686    0.692718    0.612431     0.005394
NI3150   NI        0.250247    0.713422    0.585686     0.004307
PD3151   PD        0.308478    0.692981    0.577426     0.005394
NI3152   NI        0.339860    0.731239    0.584601     0.004307
PD3153   PD        0.343616    0.692379    0.613858     0.005394
PD3154   PD        0.345452    0.726881    0.577775     0.005394
PD3155   PD        0.382416    0.694328    0.579054     0.005394
PD3156   PD        0.382615    0.726979    0.612766     0.005394
PD3157   PD        0.420210    0.693466    0.613350     0.005394
NI3158   NI        0.385867    0.753952    0.576138     0.004307
PD3159   PD        0.456763    0.692880    0.579552     0.005394
PD3160   PD        0.455516    0.726974    0.613143     0.005394
PD3161   PD        0.491827    0.691791    0.613132     0.005394
NI3162   NI        0.459277    0.719698    0.608012     0.004307
NI3163   NI        0.518853    0.681109    0.571073     0.004307
NI3164   NI        0.541298    0.703097    0.605817     0.004307
NI3165   NI        0.560094    0.686908    0.597952     0.004307
PD3166   PD        0.567195    0.726976    0.580458     0.005394
PD3167   PD        0.604716    0.692606    0.578445     0.005394
NI3168   NI        0.593857    0.738982    0.591141     0.004307
NI3169   NI        0.666558    0.677250    0.623534     0.004307
PD3170   PD        0.641332    0.726114    0.579644     0.005394
PD3171   PD        0.676188    0.691926    0.580321     0.005394
NI3172   NI        0.650280    0.750628    0.612996     0.004307
NI3173   NI        0.713605    0.690889    0.615247     0.004307
NI3174   NI        0.711820    0.726440    0.581691     0.004307
NI3175   NI        0.759778    0.663795    0.595338     0.004307
NI3176   NI        0.267224    0.767287    0.578301     0.004307
NI3177   NI        0.310126    0.725559    0.610910     0.004307
NI3178   NI        0.346485    0.760373    0.612308     0.004307
NI3179   NI        0.345176    0.796055    0.577059     0.004307
PD3180   PD        0.381113    0.761946    0.578078     0.005394
NI3181   NI        0.381668    0.830414    0.645392     0.004307
PD3182   PD        0.418122    0.760871    0.612738     0.005394
NI3183   NI        0.417908    0.794696    0.577827     0.004307
PD3184   PD        0.456504    0.759445    0.578580     0.005394
NI3185   NI        0.484217    0.797338    0.625530     0.004307
NI3186   NI        0.553439    0.747023    0.619944     0.004307
NI3187   NI        0.492158    0.794897    0.578975     0.004307
NI3188   NI        0.529823    0.761476    0.579665     0.004307
NI3189   NI        0.530863    0.796141    0.613368     0.004307
NI3190   NI        0.566572    0.761205    0.612550     0.004307
NI3191   NI        0.566737    0.795642    0.579900     0.004307
NI3192   NI        0.604965    0.762143    0.578937     0.004307
NI3193   NI        0.640181    0.760292    0.614475     0.004307
NI3194   NI        0.269325    0.102644    0.648223     0.004307
NI3195   NI        0.314591    0.096896    0.730750     0.004307
NI3196   NI        0.343605    0.101814    0.649007     0.004307
NI3197   NI        0.381458    0.066700    0.647629     0.004307
NI3198   NI        0.380189    0.102094    0.683104     0.004307
NI3199   NI        0.383234    0.067630    0.717052     0.004307
NI3200   NI        0.418728    0.102464    0.648479     0.004307
NI3201   NI        0.457071    0.034702    0.614121     0.004307
NI3202   NI        0.457636    0.100109    0.682997     0.004307
NI3203   NI        0.493871    0.068963    0.682512     0.004307
NI3204   NI        0.492286    0.101909    0.648297     0.004307
NI3205   NI        0.554230    0.095250    0.651337     0.004307
NI3206   NI        0.566984    0.068498    0.680423     0.004307
NI3207   NI        0.568156    0.105800    0.646486     0.004307
NI3208   NI        0.604564    0.100414    0.677312     0.004307
NI3209   NI        0.637195    0.109211    0.645159     0.004307
NI3210   NI        0.195793    0.175737    0.647329     0.004307
NI3211   NI        0.231744    0.136518    0.648175     0.004307
NI3212   NI        0.233223    0.169803    0.687184     0.004307
NI3213   NI        0.243622    0.117412    0.686434     0.004307
NI3214   NI        0.259166    0.184773    0.643296     0.004307
NI3215   NI        0.305680    0.135485    0.648213     0.004307
NI3216   NI        0.304838    0.168659    0.682670     0.004307
NI3217   NI        0.341533    0.134770    0.682660     0.004307
NI3218   NI        0.339005    0.188375    0.674611     0.004307
NI3219   NI        0.349000    0.136345    0.662770     0.004307
NI3220   NI        0.383483    0.203770    0.693893     0.004307
NI3221   NI        0.456951    0.136154    0.648594     0.004307
PD3222   PD        0.417445    0.168931    0.649637     0.005394
NI3223   NI        0.456091    0.108794    0.683518     0.004307
PD3224   PD        0.452791    0.167132    0.683403     0.005394
NI3225   NI        0.492645    0.137184    0.682708     0.004307
PD3226   PD        0.489871    0.170844    0.649541     0.005394
NI3227   NI        0.551275    0.145379    0.645755     0.004307
NI3228   NI        0.526386    0.173660    0.682887     0.004307
NI3229   NI        0.563312    0.144486    0.681411     0.004307
NI3230   NI        0.556136    0.181876    0.680506     0.004307
NI3231   NI        0.600719    0.142494    0.648092     0.004307
NI3232   NI        0.601983    0.179893    0.682492     0.004307
NI3233   NI        0.634978    0.150377    0.675637     0.004307
NI3234   NI        0.637000    0.179186    0.647140     0.004307
NI3235   NI        0.675082    0.145129    0.646139     0.004307
NI3236   NI        0.675963    0.179500    0.680663     0.004307
NI3237   NI        0.709547    0.177618    0.647142     0.004307
NI3238   NI        0.140552    0.223126    0.692163     0.004307
NI3239   NI        0.158833    0.210144    0.648164     0.004307
NI3240   NI        0.163999    0.244208    0.683733     0.004307
NI3241   NI        0.187812    0.213996    0.716516     0.004307
NI3242   NI        0.195538    0.242832    0.647370     0.004307
NI3243   NI        0.219946    0.206841    0.666004     0.004307
NI3244   NI        0.217451    0.253401    0.712735     0.004307
NI3245   NI        0.267911    0.203774    0.683112     0.004307
PD3246   PD        0.269561    0.238574    0.650092     0.005394
PD3247   PD        0.305000    0.204576    0.649124     0.005394
PD3248   PD        0.303156    0.236700    0.684773     0.005394
PD3249   PD        0.341912    0.203641    0.683008     0.005394
NI3250   NI        0.321738    0.228583    0.649842     0.004307
PD3251   PD        0.379282    0.203020    0.651544     0.005394
PD3252   PD        0.378748    0.236430    0.685471     0.005394
NI3253   NI        0.425760    0.201045    0.662474     0.004307
NI3254   NI        0.405126    0.236301    0.674455     0.004307
PD3255   PD        0.453961    0.204351    0.650398     0.005394
PD3256   PD        0.454099    0.235740    0.687700     0.005394
PD3257   PD        0.488808    0.201844    0.686184     0.005394
PD3258   PD        0.492758    0.237515    0.651891     0.005394
PD3259   PD        0.528356    0.205915    0.650023     0.005394
PD3260   PD        0.527955    0.232234    0.688473     0.005394
NI3261   NI        0.563713    0.198829    0.689055     0.004307
NI3262   NI        0.563471    0.234782    0.655533     0.004307
NI3263   NI        0.602034    0.215942    0.644941     0.004307
NI3264   NI        0.601278    0.229309    0.689772     0.004307
PD3265   PD        0.638048    0.211349    0.681215     0.005394
PD3266   PD        0.636685    0.245553    0.646445     0.005394
NI3267   NI        0.673482    0.184226    0.672376     0.004307
NI3268   NI        0.709192    0.211831    0.681671     0.004307
NI3269   NI        0.714080    0.201468    0.683338     0.004307
NI3270   NI        0.693935    0.241432    0.649270     0.004307
NI3271   NI        0.776570    0.210105    0.659457     0.004307
NI3272   NI        0.747727    0.245456    0.680852     0.004307
NI3273   NI        0.781350    0.217454    0.657638     0.004307
NI3274   NI        0.049738    0.247626    0.650214     0.004307
NI3275   NI        0.163839    0.314198    0.683956     0.004307
NI3276   NI        0.162449    0.279544    0.648693     0.004307
NI3277   NI        0.116569    0.310884    0.688412     0.004307
NI3278   NI        0.195337    0.271656    0.674328     0.004307
PD3279   PD        0.199791    0.312105    0.649606     0.005394
NI3280   NI        0.233420    0.275826    0.650566     0.004307
NI3281   NI        0.243126    0.310739    0.680734     0.004307
NI3282   NI        0.248099    0.269052    0.676547     0.004307
PD3283   PD        0.271519    0.307534    0.654981     0.005394
PD3284   PD        0.306755    0.272195    0.652675     0.005394
PD3285   PD        0.307629    0.305897    0.688365     0.005394
PD3286   PD        0.341871    0.270630    0.685686     0.005394
PD3287   PD        0.344015    0.306212    0.653258     0.005394
PD3288   PD        0.379836    0.271922    0.652422     0.005394
NI3289   NI        0.358149    0.313480    0.686559     0.004307
NI3290   NI        0.433618    0.274558    0.696576     0.004307
PD3291   PD        0.419154    0.306282    0.653381     0.005394
PD3292   PD        0.455518    0.271013    0.653828     0.005394
PD3293   PD        0.455929    0.305515    0.687067     0.005394
PD3294   PD        0.491109    0.267369    0.688931     0.005394
PD3295   PD        0.493783    0.302910    0.653976     0.005394
PD3296   PD        0.529678    0.269335    0.656212     0.005394
NI3297   NI        0.549722    0.308414    0.701804     0.004307
PD3298   PD        0.564724    0.263781    0.690830     0.005394
NI3299   NI        0.569033    0.299499    0.657931     0.004307
PD3300   PD        0.603576    0.265384    0.660852     0.005394
NI3301   NI        0.606937    0.302697    0.673400     0.004307
NI3302   NI        0.678290    0.293288    0.693274     0.004307
NI3303   NI        0.646342    0.328914    0.650571     0.004307
NI3304   NI        0.691272    0.283835    0.641942     0.004307
NI3305   NI        0.689563    0.303089    0.662473     0.004307
NI3306   NI        0.716674    0.301957    0.693401     0.004307
NI3307   NI        0.729822    0.337795    0.665049     0.004307
NI3308   NI        0.743926    0.287870    0.655877     0.004307
NI3309   NI        0.754120    0.309530    0.665885     0.004307
NI3310   NI        0.818089    0.277259    0.714822     0.004307
NI3311   NI        0.803626    0.299001    0.661840     0.004307
NI3312   NI        0.105531    0.327999    0.660076     0.004307
NI3313   NI        0.089031    0.383739    0.684604     0.004307
NI3314   NI        0.113699    0.342698    0.700236     0.004307
NI3315   NI        0.091813    0.370046    0.645160     0.004307
NI3316   NI        0.139089    0.363811    0.660029     0.004307
NI3317   NI        0.139762    0.396547    0.694410     0.004307
NI3318   NI        0.201451    0.348684    0.683606     0.004307
NI3319   NI        0.171005    0.390094    0.658015     0.004307
NI3320   NI        0.238333    0.350473    0.647108     0.004307
NI3321   NI        0.220974    0.389020    0.667267     0.004307
PD3322   PD        0.273611    0.340267    0.688918     0.005394
NI3323   NI        0.255464    0.362972    0.657168     0.004307
PD3324   PD        0.311282    0.351546    0.647105     0.005394
NI3325   NI        0.289424    0.374543    0.687560     0.004307
NI3326   NI        0.343800    0.340721    0.686431     0.004307
PD3327   PD        0.331371    0.385860    0.676476     0.005394
PD3328   PD        0.381730    0.337965    0.654618     0.005394
PD3329   PD        0.380736    0.394573    0.687890     0.005394
NI3330   NI        0.409000    0.357227    0.686052     0.004307
PD3331   PD        0.418051    0.384340    0.648171     0.005394
PD3332   PD        0.448242    0.358121    0.664561     0.005394
PD3333   PD        0.460254    0.370826    0.692716     0.005394
PD3334   PD        0.492945    0.352579    0.683716     0.005394
PD3335   PD        0.495370    0.372901    0.651883     0.005394
PD3336   PD        0.528969    0.336859    0.654875     0.005394
PD3337   PD        0.529236    0.386335    0.682464     0.005394
PD3338   PD        0.566506    0.351980    0.684102     0.005394
PD3339   PD        0.565222    0.386288    0.648196     0.005394
PD3340   PD        0.601997    0.349845    0.646981     0.005394
PD3341   PD        0.601268    0.385282    0.683765     0.005394
NI3342   NI        0.640714    0.329922    0.695260     0.004307
NI3343   NI        0.663418    0.395459    0.658487     0.004307
NI3344   NI        0.705170    0.348949    0.681615     0.004307
PD3345   PD        0.675469    0.384555    0.682976     0.005394
NI3346   NI        0.715311    0.326474    0.694655     0.004307
PD3347   PD        0.711307    0.382815    0.648164     0.005394
NI3348   NI        0.756606    0.371354    0.643595     0.004307
NI3349   NI        0.778955    0.385556    0.665929     0.004307
NI3350   NI        0.812989    0.362026    0.693830     0.004307
NI3351   NI        0.765742    0.369193    0.622495     0.004307
NI3352   NI        0.823824    0.348576    0.648892     0.004307
NI3353   NI        0.827165    0.398786    0.672823     0.004307
NI3354   NI        0.089561    0.416453    0.647828     0.004307
NI3355   NI        0.088465    0.432772    0.652295     0.004307
NI3356   NI        0.125380    0.417858    0.683655     0.004307
NI3357   NI        0.099009    0.431317    0.653171     0.004307
NI3358   NI        0.158605    0.432830    0.650460     0.004307
NI3359   NI        0.127374    0.438626    0.680663     0.004307
PD3360   PD        0.198399    0.419278    0.682940     0.005394
PD3361   PD        0.200698    0.453176    0.647958     0.005394
NI3362   NI        0.220746    0.402226    0.651835     0.004307
NI3363   NI        0.199381    0.429585    0.682561     0.004307
NI3364   NI        0.258394    0.429674    0.664235     0.004307
PD3365   PD        0.273436    0.455383    0.648330     0.005394
PD3366   PD        0.307596    0.420459    0.648156     0.005394
PD3367   PD        0.310126    0.454872    0.683017     0.005394
PD3368   PD        0.344346    0.421605    0.682065     0.005394
PD3369   PD        0.352062    0.428360    0.674241     0.005394
PD3370   PD        0.386610    0.421573    0.648546     0.005394
PD3371   PD        0.400894    0.435718    0.685304     0.005394
PD3372   PD        0.418001    0.420733    0.682986     0.005394
PD3373   PD        0.418541    0.455616    0.650352     0.005394
PD3374   PD        0.441548    0.407678    0.670953     0.005394
PD3375   PD        0.453958    0.453663    0.683539     0.005394
PD3376   PD        0.491198    0.419796    0.683082     0.005394
PD3377   PD        0.454190    0.421520    0.647240     0.005394
PD3378   PD        0.528557    0.420383    0.648820     0.005394
NI3379   NI        0.518274    0.434794    0.702022     0.004307
PD3380   PD        0.565295    0.421136    0.682636     0.005394
PD3381   PD        0.566613    0.454851    0.649716     0.005394
PD3382   PD        0.600793    0.418865    0.648230     0.005394
PD3383   PD        0.603961    0.454180    0.682911     0.005394
NI3384   NI        0.648713    0.420163    0.703657     0.004307
PD3385   PD        0.638092    0.453478    0.648267     0.005394
NI3386   NI        0.701125    0.428635    0.657804     0.004307
PD3387   PD        0.675797    0.452239    0.681784     0.005394
PD3388   PD        0.712904    0.418486    0.682459     0.005394
NI3389   NI        0.690861    0.450626    0.654273     0.004307
PD3390   PD        0.749375    0.415850    0.647094     0.005394
PD3391   PD        0.750235    0.450369    0.679795     0.005394
NI3392   NI        0.786080    0.417420    0.684788     0.004307
NI3393   NI        0.788877    0.454720    0.650691     0.004307
NI3394   NI        0.822313    0.416736    0.647633     0.004307
NI3395   NI        0.823183    0.451798    0.682684     0.004307
NI3396   NI        0.108167    0.481531    0.670704     0.004307
NI3397   NI        0.110034    0.466934    0.678893     0.004307
NI3398   NI        0.125396    0.521406    0.647859     0.004307
NI3399   NI        0.148415    0.476973    0.624954     0.004307
NI3400   NI        0.140942    0.529376    0.681824     0.004307
PD3401   PD        0.197746    0.489530    0.681954     0.005394
PD3402   PD        0.197364    0.522822    0.649504     0.005394
PD3403   PD        0.233896    0.488279    0.652410     0.005394
PD3404   PD        0.236424    0.520303    0.682007     0.005394
PD3405   PD        0.271887    0.490681    0.682499     0.005394
PD3406   PD        0.276375    0.521137    0.647812     0.005394
PD3407   PD        0.309302    0.489734    0.648632     0.005394
PD3408   PD        0.306423    0.524736    0.686139     0.005394
NI3409   NI        0.325773    0.465235    0.684761     0.004307
PD3410   PD        0.346123    0.524268    0.649131     0.005394
PD3411   PD        0.374572    0.477354    0.639187     0.005394
PD3412   PD        0.382353    0.523762    0.683935     0.005394
PD3413   PD        0.419148    0.490513    0.683658     0.005394
PD3414   PD        0.418293    0.523643    0.647366     0.005394
PD3415   PD        0.455045    0.490021    0.649149     0.005394
PD3416   PD        0.455237    0.522606    0.681947     0.005394
PD3417   PD        0.492429    0.490267    0.683282     0.005394
PD3418   PD        0.492450    0.523830    0.648885     0.005394
PD3419   PD        0.528772    0.489448    0.649368     0.005394
PD3420   PD        0.529732    0.524588    0.682540     0.005394
NI3421   NI        0.570938    0.474539    0.694917     0.004307
NI3422   NI        0.572160    0.506017    0.660277     0.004307
PD3423   PD        0.603464    0.486868    0.649380     0.005394
NI3424   NI        0.605626    0.510401    0.705585     0.004307
PD3425   PD        0.638677    0.486902    0.682550     0.005394
NI3426   NI        0.664450    0.513989    0.651100     0.004307
NI3427   NI        0.681980    0.472466    0.652828     0.004307
PD3428   PD        0.676268    0.520917    0.682637     0.005394
NI3429   NI        0.710903    0.479792    0.685757     0.004307
PD3430   PD        0.713069    0.519572    0.647789     0.005394
PD3431   PD        0.749455    0.486109    0.647274     0.005394
NI3432   NI        0.751116    0.520675    0.682109     0.004307
NI3433   NI        0.786770    0.483287    0.681630     0.004307
NI3434   NI        0.787632    0.518062    0.648622     0.004307
NI3435   NI        0.823514    0.484267    0.648469     0.004307
NI3436   NI        0.116436    0.524971    0.688617     0.004307
NI3437   NI        0.115403    0.556755    0.654105     0.004307
PD3438   PD        0.160758    0.555618    0.647627     0.005394
NI3439   NI        0.167979    0.593025    0.677980     0.004307
NI3440   NI        0.178586    0.561973    0.693664     0.004307
NI3441   NI        0.185712    0.614046    0.630518     0.004307
NI3442   NI        0.211759    0.534271    0.620751     0.004307
NI3443   NI        0.233976    0.588613    0.681224     0.004307
PD3444   PD        0.270342    0.557049    0.684411     0.005394
NI3445   NI        0.259749    0.583293    0.669100     0.004307
PD3446   PD        0.307166    0.556632    0.648544     0.005394
PD3447   PD        0.306538    0.592373    0.682574     0.005394
PD3448   PD        0.343235    0.558984    0.683813     0.005394
PD3449   PD        0.344305    0.592764    0.650130     0.005394
PD3450   PD        0.381739    0.555422    0.648434     0.005394
PD3451   PD        0.382600    0.593180    0.683997     0.005394
PD3452   PD        0.418680    0.558303    0.683131     0.005394
PD3453   PD        0.419967    0.590828    0.647808     0.005394
PD3454   PD        0.456268    0.557427    0.649960     0.005394
PD3455   PD        0.455365    0.591861    0.683404     0.005394
PD3456   PD        0.493559    0.558257    0.681525     0.005394
PD3457   PD        0.490864    0.591619    0.647897     0.005394
PD3458   PD        0.530095    0.558171    0.649620     0.005394
PD3459   PD        0.529925    0.593347    0.682396     0.005394
PD3460   PD        0.566965    0.557375    0.683333     0.005394
PD3461   PD        0.566631    0.590496    0.648703     0.005394
NI3462   NI        0.600070    0.559986    0.634047     0.004307
PD3463   PD        0.601956    0.590784    0.681855     0.005394
NI3464   NI        0.615006    0.566726    0.694430     0.004307
PD3465   PD        0.639569    0.590000    0.645653     0.005394
NI3466   NI        0.698278    0.556373    0.638827     0.004307
NI3467   NI        0.700119    0.601510    0.690190     0.004307
PD3468   PD        0.713146    0.553451    0.683225     0.005394
NI3469   NI        0.711216    0.589812    0.649784     0.004307
NI3470   NI        0.749975    0.553770    0.649685     0.004307
NI3471   NI        0.783294    0.622641    0.685415     0.004307
NI3472   NI        0.767960    0.570855    0.674267     0.004307
NI3473   NI        0.802223    0.603773    0.664476     0.004307
NI3474   NI        0.143673    0.639581    0.625185     0.004307
NI3475   NI        0.161482    0.585964    0.681648     0.004307
NI3476   NI        0.197377    0.656858    0.647519     0.004307
PD3477   PD        0.235135    0.623846    0.647447     0.005394
NI3478   NI        0.234798    0.659556    0.681503     0.004307
PD3479   PD        0.271123    0.625297    0.682393     0.005394
PD3480   PD        0.271431    0.660699    0.647842     0.005394
PD3481   PD        0.306901    0.624926    0.645704     0.005394
PD3482   PD        0.308021    0.660127    0.683371     0.005394
PD3483   PD        0.344045    0.626223    0.681990     0.005394
PD3484   PD        0.344680    0.658882    0.648738     0.005394
PD3485   PD        0.380878    0.625486    0.650063     0.005394
PD3486   PD        0.381403    0.660027    0.682144     0.005394
PD3487   PD        0.416732    0.626218    0.681796     0.005394
PD3488   PD        0.417399    0.660697    0.647195     0.005394
NI3489   NI        0.442924    0.636335    0.669613     0.004307
PD3490   PD        0.454667    0.659455    0.681938     0.005394
PD3491   PD        0.492292    0.623640    0.682763     0.005394
PD3492   PD        0.493853    0.658800    0.647782     0.005394
PD3493   PD        0.527609    0.625012    0.648679     0.005394
PD3494   PD        0.531237    0.660384    0.682259     0.005394
PD3495   PD        0.567845    0.626436    0.683272     0.005394
NI3496   NI        0.571432    0.634262    0.660206     0.004307
PD3497   PD        0.567029    0.590879    0.649284     0.005394
NI3498   NI        0.601831    0.659768    0.682015     0.004307
NI3499   NI        0.652772    0.594844    0.689632     0.004307
NI3500   NI        0.663570    0.638255    0.653442     0.004307
NI3501   NI        0.690429    0.600996    0.658289     0.004307
NI3502   NI        0.677859    0.657436    0.682731     0.004307
NI3503   NI        0.720081    0.648315    0.711484     0.004307
NI3504   NI        0.713119    0.657373    0.648506     0.004307
NI3505   NI        0.728761    0.633299    0.664855     0.004307
NI3506   NI        0.234120    0.691287    0.647173     0.004307
NI3507   NI        0.259878    0.705068    0.658428     0.004307
NI3508   NI        0.268388    0.703115    0.650310     0.004307
PD3509   PD        0.308681    0.693591    0.647298     0.005394
NI3510   NI        0.307120    0.729348    0.681854     0.004307
PD3511   PD        0.344229    0.693653    0.681714     0.005394
NI3512   NI        0.344837    0.727633    0.648395     0.004307
PD3513   PD        0.381885    0.695656    0.647866     0.005394
NI3514   NI        0.382125    0.729184    0.682406     0.004307
NI3515   NI        0.406609    0.714548    0.680284     0.004307
PD3516   PD        0.418404    0.727045    0.646649     0.005394
PD3517   PD        0.455974    0.694879    0.647612     0.005394
NI3518   NI        0.454956    0.729164    0.681206     0.004307
PD3519   PD        0.492924    0.693487    0.681781     0.005394
NI3520   NI        0.446346    0.739133    0.659481     0.004307
NI3521   NI        0.555828    0.710179    0.676616     0.004307
NI3522   NI        0.529068    0.729127    0.681960     0.004307
PD3523   PD        0.566974    0.693402    0.682603     0.005394
NI3524   NI        0.567420    0.725922    0.647260     0.004307
NI3525   NI        0.593500    0.679181    0.671975     0.004307
NI3526   NI        0.603831    0.727262    0.682606     0.004307
NI3527   NI        0.641004    0.692331    0.682139     0.004307
NI3528   NI        0.669765    0.726868    0.655934     0.004307
NI3529   NI        0.678249    0.691483    0.648532     0.004307
NI3530   NI        0.381550    0.762810    0.646858     0.004307
NI3531   NI        0.420628    0.762378    0.680688     0.004307
NI3532   NI        0.455768    0.761750    0.646835     0.004307
NI3533   NI        0.492275    0.763841    0.680141     0.004307
NI3534   NI        0.529356    0.761238    0.648311     0.004307
NI3535   NI        0.403861    0.118939    0.729247     0.004307
NI3536   NI        0.493381    0.103591    0.715736     0.004307
NI3537   NI        0.269234    0.169336    0.717363     0.004307
NI3538   NI        0.305251    0.168275    0.748896     0.004307
NI3539   NI        0.301515    0.176422    0.773630     0.004307
NI3540   NI        0.340452    0.168435    0.717107     0.004307
NI3541   NI        0.354397    0.123919    0.728209     0.004307
NI3542   NI        0.378717    0.167886    0.751802     0.004307
NI3543   NI        0.417152    0.136187    0.751883     0.004307
NI3544   NI        0.441285    0.148674    0.721440     0.004307
NI3545   NI        0.454462    0.133392    0.718338     0.004307
NI3546   NI        0.454066    0.181227    0.750684     0.004307
NI3547   NI        0.492879    0.134628    0.751614     0.004307
NI3548   NI        0.488479    0.169340    0.716249     0.004307
NI3549   NI        0.527722    0.144807    0.715688     0.004307
NI3550   NI        0.535475    0.156800    0.769129     0.004307
NI3551   NI        0.564099    0.181682    0.713790     0.004307
NI3552   NI        0.601953    0.143872    0.715545     0.004307
NI3553   NI        0.602778    0.127566    0.757229     0.004307
NI3554   NI        0.628802    0.155401    0.726079     0.004307
NI3555   NI        0.179973    0.260255    0.715040     0.004307
NI3556   NI        0.220279    0.188432    0.742101     0.004307
NI3557   NI        0.231319    0.235508    0.753968     0.004307
NI3558   NI        0.267756    0.203095    0.751735     0.004307
NI3559   NI        0.267611    0.238111    0.718018     0.004307
NI3560   NI        0.303590    0.202927    0.717678     0.004307
NI3561   NI        0.304297    0.236560    0.751954     0.004307
NI3562   NI        0.340204    0.200884    0.752457     0.004307
NI3563   NI        0.340932    0.236441    0.718865     0.004307
NI3564   NI        0.407280    0.200688    0.746590     0.004307
NI3565   NI        0.378739    0.235679    0.754081     0.004307
NI3566   NI        0.414318    0.203967    0.754509     0.004307
PD3567   PD        0.415189    0.234910    0.719587     0.005394
NI3568   NI        0.453066    0.201599    0.720560     0.004307
NI3569   NI        0.460947    0.224655    0.761227     0.004307
NI3570   NI        0.509544    0.218694    0.765586     0.004307
NI3571   NI        0.488688    0.235470    0.722961     0.004307
NI3572   NI        0.526582    0.201773    0.722028     0.004307
NI3573   NI        0.534928    0.241461    0.764526     0.004307
NI3574   NI        0.558506    0.197779    0.759026     0.004307
NI3575   NI        0.561965    0.228429    0.723096     0.004307
NI3576   NI        0.602710    0.212533    0.716184     0.004307
NI3577   NI        0.600922    0.229084    0.758168     0.004307
NI3578   NI        0.674237    0.222605    0.757484     0.004307
NI3579   NI        0.634841    0.225747    0.726769     0.004307
NI3580   NI        0.674719    0.211408    0.715257     0.004307
NI3581   NI        0.685553    0.236854    0.731511     0.004307
NI3582   NI        0.726108    0.265134    0.733286     0.004307
NI3583   NI        0.115904    0.272361    0.714146     0.004307
NI3584   NI        0.193662    0.268111    0.753949     0.004307
NI3585   NI        0.181984    0.322202    0.741991     0.004307
NI3586   NI        0.231637    0.271113    0.721614     0.004307
NI3587   NI        0.238534    0.316341    0.750081     0.004307
NI3588   NI        0.273581    0.281628    0.750309     0.004307
NI3589   NI        0.268099    0.304520    0.720095     0.004307
PD3590   PD        0.305595    0.271053    0.720735     0.005394
NI3591   NI        0.307401    0.316994    0.748161     0.004307
NI3592   NI        0.307442    0.280598    0.782052     0.004307
NI3593   NI        0.338264    0.324734    0.714299     0.004307
NI3594   NI        0.360104    0.277026    0.711264     0.004307
NI3595   NI        0.393524    0.338766    0.758218     0.004307
NI3596   NI        0.449940    0.270433    0.763185     0.004307
NI3597   NI        0.398169    0.306521    0.712326     0.004307
NI3598   NI        0.440095    0.265842    0.745517     0.004307
NI3599   NI        0.454512    0.307529    0.752693     0.004307
NI3600   NI        0.489866    0.270106    0.754277     0.004307
NI3601   NI        0.492843    0.303041    0.721303     0.004307
NI3602   NI        0.528957    0.265255    0.721818     0.004307
NI3603   NI        0.523499    0.301706    0.757606     0.004307
NI3604   NI        0.564387    0.283366    0.750074     0.004307
PD3605   PD        0.565879    0.318130    0.715734     0.005394
NI3606   NI        0.601900    0.260997    0.723878     0.004307
PD3607   PD        0.602214    0.316682    0.750635     0.005394
NI3608   NI        0.638252    0.282503    0.749193     0.004307
PD3609   PD        0.637110    0.315137    0.714738     0.005394
NI3610   NI        0.676949    0.255466    0.721050     0.004307
NI3611   NI        0.674800    0.315578    0.749069     0.004307
NI3612   NI        0.684166    0.283775    0.751124     0.004307
NI3613   NI        0.720299    0.326220    0.736232     0.004307
NI3614   NI        0.727573    0.299985    0.698604     0.004307
NI3615   NI        0.116824    0.405040    0.732488     0.004307
NI3616   NI        0.160188    0.381487    0.739124     0.004307
NI3617   NI        0.164432    0.383267    0.753114     0.004307
NI3618   NI        0.176416    0.312400    0.750478     0.004307
NI3619   NI        0.201058    0.349878    0.747916     0.004307
NI3620   NI        0.207738    0.362360    0.741713     0.004307
NI3621   NI        0.207376    0.414498    0.747519     0.004307
NI3622   NI        0.235598    0.384227    0.749515     0.004307
PD3623   PD        0.271589    0.386364    0.716690     0.005394
PD3624   PD        0.311635    0.350111    0.717633     0.005394
PD3625   PD        0.310816    0.384508    0.750536     0.005394
PD3626   PD        0.344943    0.350736    0.749369     0.005394
PD3627   PD        0.345658    0.387314    0.717820     0.005394
NI3628   NI        0.354326    0.325854    0.731103     0.004307
PD3629   PD        0.383068    0.385957    0.750850     0.005394
NI3630   NI        0.440125    0.347941    0.772322     0.004307
PD3631   PD        0.419589    0.386480    0.716838     0.005394
NI3632   NI        0.471652    0.343811    0.726714     0.004307
PD3633   PD        0.455409    0.385518    0.750252     0.005394
NI3634   NI        0.457288    0.351387    0.782274     0.004307
PD3635   PD        0.492842    0.385465    0.714905     0.005394
NI3636   NI        0.525083    0.348295    0.719415     0.004307
NI3637   NI        0.490241    0.380423    0.781039     0.004307
PD3638   PD        0.566236    0.352736    0.750517     0.005394
PD3639   PD        0.566419    0.387121    0.717486     0.005394
PD3640   PD        0.602053    0.352632    0.717730     0.005394
PD3641   PD        0.601092    0.384373    0.751638     0.005394
PD3642   PD        0.638258    0.350889    0.750587     0.005394
NI3643   NI        0.642874    0.373102    0.705472     0.004307
NI3644   NI        0.663842    0.346131    0.737093     0.004307
NI3645   NI        0.680717    0.354295    0.776064     0.004307
NI3646   NI        0.695738    0.344804    0.773066     0.004307
NI3647   NI        0.743450    0.407485    0.719509     0.004307
NI3648   NI        0.762238    0.365453    0.703519     0.004307
NI3649   NI        0.761303    0.381503    0.784495     0.004307
NI3650   NI        0.786140    0.383907    0.715106     0.004307
NI3651   NI        0.126125    0.449366    0.718284     0.004307
NI3652   NI        0.181805    0.393512    0.722334     0.004307
NI3653   NI        0.162294    0.451410    0.752008     0.004307
NI3654   NI        0.200658    0.418831    0.752487     0.004307
NI3655   NI        0.177664    0.440332    0.720859     0.004307
PD3656   PD        0.234267    0.419657    0.715545     0.005394
NI3657   NI        0.234863    0.454249    0.753456     0.004307
NI3658   NI        0.273954    0.419027    0.747379     0.004307
PD3659   PD        0.270430    0.455198    0.716558     0.005394
NI3660   NI        0.297251    0.393460    0.728664     0.004307
NI3661   NI        0.307583    0.454808    0.752230     0.004307
PD3662   PD        0.347029    0.419381    0.751147     0.005394
NI3663   NI        0.316508    0.447361    0.729617     0.004307
PD3664   PD        0.384027    0.419881    0.714472     0.005394
PD3665   PD        0.382630    0.454785    0.750738     0.005394
PD3666   PD        0.418118    0.421167    0.751211     0.005394
PD3667   PD        0.418815    0.453374    0.716956     0.005394
PD3668   PD        0.456233    0.421004    0.718022     0.005394
PD3669   PD        0.455244    0.454718    0.751194     0.005394
PD3670   PD        0.492988    0.420398    0.752348     0.005394
PD3671   PD        0.492384    0.455470    0.717986     0.005394
PD3672   PD        0.529093    0.419993    0.719374     0.005394
NI3673   NI        0.546393    0.461617    0.769497     0.004307
PD3674   PD        0.566946    0.420423    0.752885     0.005394
PD3675   PD        0.566334    0.456274    0.717347     0.005394
PD3676   PD        0.602270    0.419291    0.717467     0.005394
PD3677   PD        0.603497    0.454431    0.751712     0.005394
NI3678   NI        0.637359    0.397688    0.739868     0.004307
PD3679   PD        0.639745    0.453090    0.716524     0.005394
NI3680   NI        0.700424    0.432707    0.726039     0.004307
NI3681   NI        0.677092    0.453918    0.751659     0.004307
NI3682   NI        0.714832    0.430373    0.772095     0.004307
NI3683   NI        0.699113    0.480253    0.716231     0.004307
NI3684   NI        0.750284    0.418454    0.715982     0.004307
NI3685   NI        0.762933    0.437203    0.751488     0.004307
NI3686   NI        0.786013    0.450589    0.716121     0.004307
NI3687   NI        0.165887    0.486189    0.716945     0.004307
NI3688   NI        0.197938    0.485247    0.750449     0.004307
NI3689   NI        0.196550    0.519805    0.715902     0.004307
PD3690   PD        0.234407    0.487647    0.716668     0.005394
NI3691   NI        0.233801    0.521334    0.749474     0.004307
PD3692   PD        0.270544    0.488034    0.750383     0.005394
PD3693   PD        0.272043    0.523886    0.717739     0.005394
PD3694   PD        0.308373    0.490101    0.719516     0.005394
PD3695   PD        0.307296    0.521225    0.752640     0.005394
NI3696   NI        0.303591    0.499974    0.716084     0.004307
PD3697   PD        0.345092    0.524689    0.720687     0.005394
PD3698   PD        0.382182    0.490426    0.717317     0.005394
PD3699   PD        0.384828    0.527215    0.753137     0.005394
PD3700   PD        0.418135    0.489195    0.750827     0.005394
PD3701   PD        0.419494    0.523278    0.717441     0.005394
PD3702   PD        0.454762    0.489474    0.717841     0.005394
NI3703   NI        0.466753    0.501655    0.754254     0.004307
NI3704   NI        0.506095    0.472680    0.756434     0.004307
PD3705   PD        0.491890    0.524673    0.717768     0.005394
PD3706   PD        0.529005    0.488327    0.716114     0.005394
PD3707   PD        0.530375    0.523533    0.750514     0.005394
PD3708   PD        0.565839    0.488570    0.750387     0.005394
PD3709   PD        0.566754    0.522622    0.717077     0.005394
PD3710   PD        0.603707    0.489042    0.716741     0.005394
PD3711   PD        0.604076    0.522362    0.751720     0.005394
PD3712   PD        0.640814    0.489277    0.750676     0.005394
PD3713   PD        0.640569    0.521883    0.716588     0.005394
NI3714   NI        0.690091    0.522883    0.712925     0.004307
NI3715   NI        0.646001    0.525207    0.778348     0.004307
NI3716   NI        0.724815    0.469015    0.742728     0.004307
NI3717   NI        0.713581    0.522844    0.716298     0.004307
NI3718   NI        0.750055    0.485489    0.715758     0.004307
NI3719   NI        0.160136    0.533890    0.724902     0.004307
NI3720   NI        0.197060    0.558222    0.750996     0.004307
NI3721   NI        0.197829    0.590845    0.718304     0.004307
NI3722   NI        0.234424    0.557409    0.717995     0.004307
NI3723   NI        0.233839    0.593389    0.747921     0.004307
PD3724   PD        0.271785    0.557418    0.751964     0.005394
PD3725   PD        0.271102    0.589401    0.716990     0.005394
PD3726   PD        0.310302    0.558222    0.718535     0.005394
NI3727   NI        0.309248    0.590584    0.752218     0.004307
PD3728   PD        0.346341    0.525528    0.720538     0.005394
NI3729   NI        0.334514    0.606482    0.695115     0.004307
PD3730   PD        0.381129    0.557976    0.717207     0.005394
NI3731   NI        0.380475    0.596628    0.792862     0.004307
PD3732   PD        0.419231    0.558669    0.751850     0.005394
PD3733   PD        0.418644    0.590933    0.717380     0.005394
NI3734   NI        0.442105    0.569725    0.737365     0.004307
PD3735   PD        0.455845    0.592863    0.752247     0.005394
PD3736   PD        0.492392    0.556634    0.751234     0.005394
NI3737   NI        0.516942    0.615970    0.694889     0.004307
PD3738   PD        0.529492    0.557649    0.716384     0.005394
NI3739   NI        0.541389    0.569841    0.762384     0.004307
NI3740   NI        0.566492    0.576873    0.740733     0.004307
NI3741   NI        0.581171    0.583943    0.743746     0.004307
PD3742   PD        0.604928    0.557697    0.716806     0.005394
NI3743   NI        0.621217    0.599741    0.769242     0.004307
NI3744   NI        0.669381    0.567147    0.762545     0.004307
NI3745   NI        0.630461    0.612503    0.703355     0.004307
NI3746   NI        0.691473    0.534921    0.725267     0.004307
NI3747   NI        0.699162    0.596443    0.740222     0.004307
NI3748   NI        0.713015    0.554573    0.749301     0.004307
NI3749   NI        0.714238    0.599247    0.736507     0.004307
NI3750   NI        0.755218    0.579259    0.746307     0.004307
NI3751   NI        0.235695    0.626061    0.715403     0.004307
NI3752   NI        0.273371    0.625188    0.752363     0.004307
NI3753   NI        0.272336    0.654121    0.714762     0.004307
NI3754   NI        0.272460    0.653245    0.714113     0.004307
NI3755   NI        0.307491    0.659903    0.751195     0.004307
NI3756   NI        0.344220    0.657160    0.786090     0.004307
PD3757   PD        0.345775    0.660684    0.717174     0.005394
PD3758   PD        0.382945    0.627761    0.717525     0.005394
NI3759   NI        0.391463    0.659822    0.772389     0.004307
PD3760   PD        0.417932    0.626682    0.751258     0.005394
PD3761   PD        0.419317    0.660790    0.716790     0.005394
PD3762   PD        0.453996    0.626205    0.716518     0.005394
NI3763   NI        0.458699    0.652087    0.747738     0.004307
NI3764   NI        0.457282    0.660326    0.750768     0.004307
PD3765   PD        0.492410    0.659954    0.715555     0.005394
NI3766   NI        0.552823    0.615333    0.725641     0.004307
NI3767   NI        0.540485    0.682104    0.763948     0.004307
NI3768   NI        0.549062    0.619317    0.734180     0.004307
NI3769   NI        0.566755    0.659882    0.716259     0.004307
NI3770   NI        0.604710    0.600110    0.723789     0.004307
NI3771   NI        0.604087    0.660578    0.750290     0.004307
NI3772   NI        0.640247    0.625540    0.750868     0.004307
NI3773   NI        0.637994    0.691248    0.750006     0.004307
NI3774   NI        0.676610    0.626186    0.716659     0.004307
NI3775   NI        0.308785    0.691711    0.717997     0.004307
NI3776   NI        0.396069    0.662206    0.725931     0.004307
NI3777   NI        0.428147    0.728377    0.714996     0.004307
NI3778   NI        0.418283    0.727894    0.716153     0.004307
NI3779   NI        0.470027    0.701012    0.716362     0.004307
NI3780   NI        0.509849    0.702147    0.745709     0.004307
NI3781   NI        0.493356    0.730744    0.714503     0.004307
NI3782   NI        0.528931    0.693979    0.714953     0.004307
NI3783   NI        0.603218    0.693855    0.715686     0.004307
NI3784   NI        0.401162    0.166614    0.779222     0.004307
NI3785   NI        0.489603    0.177946    0.782311     0.004307
NI3786   NI        0.299796    0.235347    0.792732     0.004307
NI3787   NI        0.339685    0.236579    0.786695     0.004307
NI3788   NI        0.374932    0.204733    0.786490     0.004307
NI3789   NI        0.381801    0.278940    0.846252     0.004307
NI3790   NI        0.434839    0.240768    0.790248     0.004307
NI3791   NI        0.451057    0.224786    0.749409     0.004307
NI3792   NI        0.453183    0.247341    0.813913     0.004307
NI3793   NI        0.490710    0.249742    0.783335     0.004307
NI3794   NI        0.521075    0.230038    0.799410     0.004307
NI3795   NI        0.524333    0.240099    0.800893     0.004307
NI3796   NI        0.564345    0.248664    0.784064     0.004307
NI3797   NI        0.635831    0.247827    0.784644     0.004307
NI3798   NI        0.274143    0.316010    0.783665     0.004307
NI3799   NI        0.264197    0.270757    0.795768     0.004307
NI3800   NI        0.314010    0.313606    0.816271     0.004307
NI3801   NI        0.317497    0.261753    0.822198     0.004307
NI3802   NI        0.333983    0.303896    0.809883     0.004307
NI3803   NI        0.353768    0.281477    0.801020     0.004307
NI3804   NI        0.381686    0.317490    0.820656     0.004307
NI3805   NI        0.419963    0.310731    0.849057     0.004307
NI3806   NI        0.417941    0.305054    0.788165     0.004307
NI3807   NI        0.442651    0.266736    0.771628     0.004307
NI3808   NI        0.455999    0.317629    0.818572     0.004307
NI3809   NI        0.467987    0.290319    0.829148     0.004307
NI3810   NI        0.529755    0.316737    0.817323     0.004307
NI3811   NI        0.528649    0.283069    0.784439     0.004307
NI3812   NI        0.498091    0.288268    0.821790     0.004307
NI3813   NI        0.557305    0.268550    0.825974     0.004307
NI3814   NI        0.566069    0.316318    0.784177     0.004307
NI3815   NI        0.602359    0.283390    0.785977     0.004307
NI3816   NI        0.600178    0.315746    0.818873     0.004307
NI3817   NI        0.632477    0.296581    0.795897     0.004307
NI3818   NI        0.159466    0.376936    0.799394     0.004307
NI3819   NI        0.236091    0.348361    0.782920     0.004307
NI3820   NI        0.299667    0.351498    0.833016     0.004307
NI3821   NI        0.268431    0.415732    0.789970     0.004307
NI3822   NI        0.309018    0.341187    0.785859     0.004307
NI3823   NI        0.292666    0.354407    0.814733     0.004307
NI3824   NI        0.347108    0.350562    0.817400     0.004307
NI3825   NI        0.347034    0.383362    0.785022     0.004307
NI3826   NI        0.385988    0.352636    0.783224     0.004307
NI3827   NI        0.380753    0.385146    0.818905     0.004307
NI3828   NI        0.418217    0.321076    0.852913     0.004307
NI3829   NI        0.429753    0.395020    0.763388     0.004307
NI3830   NI        0.454613    0.355293    0.789962     0.004307
NI3831   NI        0.447720    0.368117    0.836002     0.004307
NI3832   NI        0.482991    0.333229    0.824226     0.004307
NI3833   NI        0.493014    0.387278    0.786997     0.004307
NI3834   NI        0.529349    0.350726    0.783508     0.004307
NI3835   NI        0.530397    0.385598    0.819376     0.004307
NI3836   NI        0.564727    0.351186    0.818993     0.004307
PD3837   PD        0.566927    0.385976    0.786425     0.005394
NI3838   NI        0.569327    0.348143    0.811846     0.004307
NI3839   NI        0.603160    0.386103    0.819662     0.004307
NI3840   NI        0.640330    0.371311    0.831633     0.004307
PD3841   PD        0.640777    0.384762    0.785731     0.005394
NI3842   NI        0.676199    0.348821    0.784729     0.004307
NI3843   NI        0.713362    0.384384    0.785896     0.004307
NI3844   NI        0.160435    0.452081    0.818868     0.004307
NI3845   NI        0.200007    0.450044    0.785466     0.004307
NI3846   NI        0.273576    0.419122    0.818229     0.004307
NI3847   NI        0.242846    0.453008    0.747944     0.004307
NI3848   NI        0.309164    0.419089    0.784172     0.004307
NI3849   NI        0.308707    0.451765    0.818924     0.004307
NI3850   NI        0.345660    0.418521    0.819167     0.004307
PD3851   PD        0.345984    0.453139    0.784674     0.005394
PD3852   PD        0.381752    0.419161    0.785897     0.005394
NI3853   NI        0.381616    0.453792    0.819770     0.004307
NI3854   NI        0.456364    0.419996    0.853352     0.004307
PD3855   PD        0.418599    0.455836    0.785675     0.005394
NI3856   NI        0.441547    0.432486    0.790966     0.004307
NI3857   NI        0.455857    0.454667    0.819646     0.004307
NI3858   NI        0.477125    0.406681    0.833799     0.004307
NI3859   NI        0.503910    0.477100    0.770239     0.004307
NI3860   NI        0.518488    0.408672    0.805069     0.004307
NI3861   NI        0.547886    0.434495    0.831666     0.004307
NI3862   NI        0.566783    0.417855    0.817645     0.004307
NI3863   NI        0.549631    0.453883    0.779048     0.004307
PD3864   PD        0.602242    0.419169    0.784520     0.005394
NI3865   NI        0.603502    0.453330    0.817810     0.004307
NI3866   NI        0.639314    0.418341    0.819655     0.004307
PD3867   PD        0.638524    0.418442    0.751406     0.005394
NI3868   NI        0.712179    0.418777    0.819728     0.004307
NI3869   NI        0.714666    0.450933    0.784981     0.004307
NI3870   NI        0.235631    0.486420    0.786685     0.004307
NI3871   NI        0.272297    0.487675    0.819659     0.004307
NI3872   NI        0.306232    0.554095    0.779227     0.004307
NI3873   NI        0.322385    0.513474    0.799082     0.004307
NI3874   NI        0.298012    0.546258    0.831833     0.004307
NI3875   NI        0.347685    0.487097    0.819476     0.004307
NI3876   NI        0.344685    0.522791    0.787054     0.004307
PD3877   PD        0.381247    0.488219    0.784233     0.005394
NI3878   NI        0.383062    0.522954    0.819947     0.004307
NI3879   NI        0.419008    0.486641    0.818834     0.004307
NI3880   NI        0.408858    0.502928    0.794283     0.004307
PD3881   PD        0.456319    0.489526    0.786064     0.005394
NI3882   NI        0.455943    0.522652    0.795104     0.004307
NI3883   NI        0.493356    0.489274    0.819846     0.004307
PD3884   PD        0.492370    0.523998    0.785310     0.005394
NI3885   NI        0.515310    0.483962    0.800093     0.004307
NI3886   NI        0.531132    0.522777    0.819743     0.004307
NI3887   NI        0.567960    0.489431    0.819758     0.004307
NI3888   NI        0.567948    0.523886    0.785132     0.004307
NI3889   NI        0.594670    0.461307    0.755589     0.004307
NI3890   NI        0.603365    0.557273    0.853926     0.004307
NI3891   NI        0.612430    0.476431    0.837800     0.004307
NI3892   NI        0.640921    0.522807    0.785969     0.004307
NI3893   NI        0.677680    0.486789    0.784387     0.004307
NI3894   NI        0.270134    0.590905    0.785799     0.004307
NI3895   NI        0.308711    0.556606    0.787342     0.004307
NI3896   NI        0.346673    0.559129    0.819826     0.004307
NI3897   NI        0.346124    0.591865    0.786865     0.004307
NI3898   NI        0.371115    0.533794    0.798137     0.004307
NI3899   NI        0.361900    0.598637    0.841076     0.004307
NI3900   NI        0.381561    0.556005    0.853931     0.004307
NI3901   NI        0.418306    0.628586    0.793007     0.004307
NI3902   NI        0.455668    0.556327    0.784211     0.004307
NI3903   NI        0.419399    0.555822    0.819946     0.004307
NI3904   NI        0.494142    0.559262    0.820644     0.004307
NI3905   NI        0.493848    0.591482    0.786119     0.004307
NI3906   NI        0.529470    0.557919    0.785345     0.004307
NI3907   NI        0.478763    0.606731    0.830507     0.004307
NI3908   NI        0.567652    0.555995    0.819312     0.004307
NI3909   NI        0.566571    0.592206    0.786778     0.004307
NI3910   NI        0.604398    0.556337    0.785739     0.004307
NI3911   NI        0.639916    0.591372    0.786456     0.004307
NI3912   NI        0.382439    0.626803    0.784212     0.004307
NI3913   NI        0.420610    0.695276    0.818858     0.004307
NI3914   NI        0.455159    0.628077    0.784969     0.004307
NI3915   NI        0.479749    0.656159    0.827488     0.004307
NI3916   NI        0.518914    0.604941    0.802662     0.004307
NI3917   NI        0.418864    0.384186    0.853247     0.004307
NI3918   NI        0.470668    0.354607    0.874818     0.004307
NI3919   NI        0.493509    0.384480    0.852932     0.004307
NI3920   NI        0.381736    0.419089    0.854114     0.004307
NI3921   NI        0.406882    0.433736    0.863180     0.004307
NI3922   NI        0.486268    0.398822    0.879819     0.004307
NI3923   NI        0.500680    0.447809    0.824793     0.004307
NI3924   NI        0.524420    0.416682    0.852775     0.004307
NI3925   NI        0.455773    0.487402    0.854029     0.004307
