data_00001
_audit_creation_method   'DISCUS'

_data_chemical_name_common 'Au.cell: Pearson 85'

_cell_length_a             57.1046
_cell_length_b             57.1046
_cell_length_c             61.1835
_cell_angle_alpha     90.0000
_cell_angle_beta      90.0000
_cell_angle_gamma     90.0000

_symmetry_space_group_name_H-M   'P1              '

loop_
_atom_site_label
_atom_site_symbol
_atom_site_fract_x
_atom_site_fract_y
_atom_site_fract_z
_atom_site_u_iso_or_equiv
PD1   PD        0.393118    0.250918    0.104061     0.005394
PD2   PD        0.463245    0.251819    0.102950     0.005394
PD3   PD        0.539734    0.258020    0.105000     0.005394
PD4   PD        0.257777    0.356603    0.061050     0.005394
PD5   PD        0.358192    0.288897    0.105904     0.005394
PD6   PD        0.396464    0.326064    0.104124     0.005394
PD7   PD        0.430727    0.290041    0.105081     0.005394
PD8   PD        0.465254    0.327066    0.103881     0.005394
PD9   PD        0.501053    0.289767    0.103739     0.005394
PD10   PD        0.538870    0.363205    0.071517     0.005394
PD11   PD        0.576703    0.287244    0.105938     0.005394
PD12   PD        0.608855    0.327528    0.101841     0.005394
PD13   PD        0.281019    0.365870    0.099696     0.005394
PD14   PD        0.319486    0.398345    0.106759     0.005394
PD15   PD        0.356072    0.365198    0.100793     0.005394
PD16   PD        0.396209    0.400300    0.103617     0.005394
PD17   PD        0.434416    0.363183    0.101681     0.005394
PD18   PD        0.431138    0.402711    0.070585     0.005394
PD19   PD        0.430540    0.415981    0.000667     0.005394
AU20   AU        0.465861    0.399318    0.106197     0.007504
PD21   PD        0.501489    0.364476    0.103186     0.005394
PD22   PD        0.498157    0.436079    0.039215     0.005394
PD23   PD        0.542997    0.398421    0.100636     0.005394
PD24   PD        0.574769    0.362319    0.105758     0.005394
PD25   PD        0.611332    0.400941    0.103426     0.005394
PD26   PD        0.648066    0.362512    0.104068     0.005394
PD27   PD        0.287689    0.432354    0.102740     0.005394
PD28   PD        0.321780    0.469348    0.101717     0.005394
PD29   PD        0.359539    0.473196    0.070969     0.005394
PD30   PD        0.395588    0.436825    0.068775     0.005394
PD31   PD        0.392376    0.470116    0.103939     0.005394
PD32   PD        0.431536    0.436605    0.104406     0.005394
PD33   PD        0.398163    0.502501    0.068968     0.005394
PD34   PD        0.465845    0.434633    0.072385     0.005394
AU35   AU        0.468783    0.470066    0.103449     0.007504
AU36   AU        0.503211    0.432628    0.106520     0.007504
PD37   PD        0.502995    0.468176    0.069959     0.005394
PD38   PD        0.576431    0.442834    0.051172     0.005394
PD39   PD        0.540492    0.467623    0.104998     0.005394
PD40   PD        0.575661    0.435963    0.103158     0.005394
PD41   PD        0.613216    0.470927    0.105865     0.005394
PD42   PD        0.690046    0.428991    0.073292     0.005394
PD43   PD        0.294796    0.511164    0.094422     0.005394
PD44   PD        0.328305    0.544319    0.100953     0.005394
PD45   PD        0.361287    0.505534    0.105328     0.005394
PD46   PD        0.394249    0.543600    0.098980     0.005394
PD47   PD        0.429686    0.501983    0.104483     0.005394
PD48   PD        0.465814    0.501755    0.070532     0.005394
PD49   PD        0.465965    0.538956    0.103741     0.005394
PD50   PD        0.503721    0.504518    0.102408     0.005394
PD51   PD        0.536345    0.540326    0.098352     0.005394
PD52   PD        0.577764    0.507018    0.104570     0.005394
PD53   PD        0.611837    0.541410    0.102793     0.005394
PD54   PD        0.648227    0.505345    0.104407     0.005394
PD55   PD        0.356490    0.575382    0.101626     0.005394
PD56   PD        0.399245    0.615321    0.100325     0.005394
PD57   PD        0.469236    0.576288    0.069101     0.005394
PD58   PD        0.506526    0.608054    0.068203     0.005394
PD59   PD        0.506208    0.577108    0.103393     0.005394
PD60   PD        0.541519    0.607452    0.100792     0.005394
PD61   PD        0.577421    0.576837    0.104448     0.005394
PD62   PD        0.324072    0.184932    0.168196     0.005394
PD63   PD        0.394171    0.182696    0.169889     0.005394
PD64   PD        0.429870    0.148762    0.168872     0.005394
PD65   PD        0.466764    0.184367    0.104017     0.005394
PD66   PD        0.469994    0.184217    0.167130     0.005394
PD67   PD        0.503174    0.147484    0.169464     0.005394
PD68   PD        0.504339    0.185768    0.136722     0.005394
PD69   PD        0.538098    0.181589    0.170346     0.005394
PD70   PD        0.611141    0.181662    0.168425     0.005394
PD71   PD        0.252621    0.255710    0.169808     0.005394
PD72   PD        0.286605    0.221110    0.172445     0.005394
PD73   PD        0.289676    0.256672    0.138149     0.005394
PD74   PD        0.323359    0.254214    0.171428     0.005394
PD75   PD        0.359629    0.217699    0.167994     0.005394
PD76   PD        0.356393    0.249502    0.134488     0.005394
PD77   PD        0.398324    0.213165    0.134739     0.005394
PD78   PD        0.393140    0.254983    0.171190     0.005394
PD79   PD        0.429866    0.218864    0.169586     0.005394
PD80   PD        0.429986    0.254332    0.136367     0.005394
PD81   PD        0.466485    0.219983    0.135758     0.005394
PD82   PD        0.464012    0.253770    0.166672     0.005394
AU83   AU        0.503164    0.220768    0.170113     0.007504
PD84   PD        0.503789    0.256994    0.134440     0.005394
PD85   PD        0.536907    0.222214    0.137278     0.005394
PD86   PD        0.539368    0.253415    0.168972     0.005394
PD87   PD        0.572527    0.220097    0.170570     0.005394
AU88   AU        0.576307    0.254723    0.138389     0.007504
AU89   AU        0.611082    0.256525    0.170274     0.007504
PD90   PD        0.642492    0.218955    0.172093     0.005394
PD91   PD        0.644197    0.254374    0.137296     0.005394
PD92   PD        0.683536    0.261516    0.167439     0.005394
PD93   PD        0.218122    0.290710    0.172742     0.005394
PD94   PD        0.253272    0.323433    0.167444     0.005394
PD95   PD        0.287135    0.290205    0.171453     0.005394
PD96   PD        0.289069    0.325199    0.136418     0.005394
PD97   PD        0.322171    0.291334    0.139530     0.005394
PD98   PD        0.321275    0.326655    0.167999     0.005394
PD99   PD        0.358948    0.287355    0.168646     0.005394
PD100   PD        0.361880    0.325892    0.134950     0.005394
PD101   PD        0.396450    0.290911    0.134583     0.005394
PD102   PD        0.395010    0.327096    0.164623     0.005394
PD103   PD        0.429061    0.289868    0.171288     0.005394
PD104   PD        0.430646    0.326051    0.137562     0.005394
PD105   PD        0.462009    0.289540    0.132815     0.005394
PD106   PD        0.470342    0.326184    0.169477     0.005394
PD107   PD        0.504964    0.293138    0.168301     0.005394
PD108   PD        0.501673    0.323561    0.134908     0.005394
PD109   PD        0.541799    0.289314    0.135663     0.005394
PD110   PD        0.541209    0.324271    0.167590     0.005394
PD111   PD        0.576891    0.290080    0.168653     0.005394
PD112   PD        0.575933    0.324807    0.137185     0.005394
PD113   PD        0.611872    0.291174    0.139977     0.005394
PD114   PD        0.609778    0.325252    0.164949     0.005394
PD115   PD        0.644715    0.291359    0.166212     0.005394
AU116   AU        0.644700    0.326586    0.135638     0.007504
PD117   PD        0.680815    0.325990    0.171182     0.005394
PD118   PD        0.751758    0.253022    0.167819     0.005394
PD119   PD        0.177466    0.399225    0.174984     0.005394
PD120   PD        0.215306    0.363431    0.169808     0.005394
PD121   PD        0.210377    0.397792    0.137289     0.005394
PD122   PD        0.249390    0.358712    0.136594     0.005394
PD123   PD        0.251602    0.397446    0.167385     0.005394
PD124   PD        0.286304    0.360771    0.170744     0.005394
PD125   PD        0.284857    0.396586    0.134805     0.005394
PD126   PD        0.319326    0.362188    0.132677     0.005394
PD127   PD        0.325369    0.395512    0.167211     0.005394
PD128   PD        0.359297    0.365431    0.165029     0.005394
PD129   PD        0.358541    0.400893    0.133795     0.005394
PD130   PD        0.391980    0.366472    0.131912     0.005394
PD131   PD        0.396777    0.397349    0.167395     0.005394
PD132   PD        0.429063    0.363086    0.169703     0.005394
AU133   AU        0.428775    0.396966    0.135886     0.007504
PD134   PD        0.466517    0.361759    0.135636     0.005394
PD135   PD        0.464795    0.398312    0.167872     0.005394
PD136   PD        0.502376    0.362794    0.168554     0.005394
PD137   PD        0.501910    0.398311    0.137882     0.005394
PD138   PD        0.540782    0.362303    0.135110     0.005394
PD139   PD        0.540721    0.397823    0.167657     0.005394
AU140   AU        0.576229    0.362601    0.167898     0.007504
PD141   PD        0.575369    0.399140    0.135877     0.005394
PD142   PD        0.611214    0.364193    0.136591     0.005394
AU143   AU        0.611333    0.400191    0.168303     0.007504
PD144   PD        0.644903    0.364031    0.167650     0.005394
PD145   PD        0.647180    0.401899    0.132938     0.005394
PD146   PD        0.678433    0.365140    0.136283     0.005394
AU147   AU        0.680230    0.398844    0.168367     0.007504
AU148   AU        0.717334    0.365029    0.167767     0.007504
PD149   PD        0.717058    0.399922    0.137847     0.005394
PD150   PD        0.755878    0.397737    0.167260     0.005394
PD151   PD        0.177386    0.465258    0.168044     0.005394
PD152   PD        0.215254    0.429079    0.169325     0.005394
PD153   PD        0.214868    0.468220    0.132894     0.005394
PD154   PD        0.250178    0.432722    0.135131     0.005394
PD155   PD        0.249904    0.469627    0.165763     0.005394
PD156   PD        0.288152    0.434231    0.169693     0.005394
PD157   PD        0.283622    0.470321    0.137624     0.005394
PD158   PD        0.321766    0.432421    0.137620     0.005394
PD159   PD        0.323466    0.471094    0.170529     0.005394
PD160   PD        0.359033    0.434079    0.168765     0.005394
PD161   PD        0.355015    0.470791    0.134795     0.005394
PD162   PD        0.395968    0.435303    0.137715     0.005394
PD163   PD        0.396752    0.468599    0.168924     0.005394
AU164   AU        0.430976    0.435102    0.169517     0.007504
PD165   PD        0.427985    0.471136    0.136475     0.005394
PD166   PD        0.465731    0.435382    0.136512     0.005394
AU167   AU        0.466580    0.470802    0.166210     0.007504
AU168   AU        0.503532    0.433891    0.168492     0.007504
AU169   AU        0.505577    0.473241    0.136329     0.007504
AU170   AU        0.541275    0.433520    0.137493     0.007504
AU171   AU        0.539797    0.467162    0.168340     0.007504
PD172   PD        0.575321    0.435653    0.167704     0.005394
PD173   PD        0.576780    0.468846    0.133896     0.005394
PD174   PD        0.610587    0.434589    0.137360     0.005394
PD175   PD        0.610427    0.470334    0.169905     0.005394
AU176   AU        0.647519    0.434754    0.169714     0.007504
PD177   PD        0.646640    0.467796    0.137748     0.005394
AU178   AU        0.682105    0.434402    0.136837     0.007504
PD179   PD        0.682948    0.469131    0.169819     0.005394
PD180   PD        0.717679    0.436152    0.169220     0.005394
PD181   PD        0.719526    0.468185    0.137043     0.005394
PD182   PD        0.751845    0.469792    0.171431     0.005394
PD183   PD        0.218401    0.507278    0.169617     0.005394
PD184   PD        0.251105    0.506301    0.134795     0.005394
PD185   PD        0.251119    0.540207    0.171464     0.005394
AU186   AU        0.287664    0.506689    0.169221     0.007504
PD187   PD        0.288854    0.543051    0.132932     0.005394
PD188   PD        0.322402    0.505959    0.134048     0.005394
PD189   PD        0.326462    0.542829    0.168991     0.005394
PD190   PD        0.360018    0.507201    0.166964     0.005394
AU191   AU        0.359941    0.541461    0.135681     0.007504
PD192   PD        0.394964    0.504772    0.134937     0.005394
AU193   AU        0.398753    0.542732    0.166501     0.007504
AU194   AU        0.432801    0.505375    0.167581     0.007504
PD195   PD        0.435138    0.541516    0.136083     0.005394
PD196   PD        0.467240    0.505887    0.137115     0.005394
AU197   AU        0.468600    0.541755    0.167426     0.007504
PD198   PD        0.503506    0.508130    0.170249     0.005394
PD199   PD        0.504563    0.541388    0.133159     0.005394
PD200   PD        0.539848    0.504638    0.136136     0.005394
PD201   PD        0.536210    0.541082    0.168689     0.005394
PD202   PD        0.574559    0.502230    0.166475     0.005394
PD203   PD        0.575352    0.541702    0.135814     0.005394
AU204   AU        0.611768    0.504969    0.135969     0.007504
AU205   AU        0.611310    0.541039    0.168341     0.007504
AU206   AU        0.647269    0.504793    0.167396     0.007504
PD207   PD        0.645485    0.543292    0.134340     0.005394
PD208   PD        0.682285    0.506754    0.135643     0.005394
PD209   PD        0.679946    0.543758    0.170640     0.005394
PD210   PD        0.716523    0.503449    0.169071     0.005394
PD211   PD        0.143455    0.532442    0.131830     0.005394
PD212   PD        0.249645    0.615765    0.171446     0.005394
PD213   PD        0.289853    0.577902    0.169687     0.005394
PD214   PD        0.233649    0.668216    0.146568     0.005394
PD215   PD        0.321359    0.577242    0.139443     0.005394
PD216   PD        0.325193    0.613027    0.168057     0.005394
PD217   PD        0.361680    0.579540    0.167438     0.005394
PD218   PD        0.356768    0.612899    0.130342     0.005394
PD219   PD        0.396590    0.579016    0.136602     0.005394
PD220   PD        0.401671    0.614392    0.166593     0.005394
AU221   AU        0.433232    0.577531    0.167556     0.007504
AU222   AU        0.435795    0.608541    0.134068     0.007504
PD223   PD        0.470494    0.575840    0.133475     0.005394
PD224   PD        0.468957    0.613536    0.165761     0.005394
PD225   PD        0.503429    0.577811    0.171339     0.005394
PD226   PD        0.507882    0.614233    0.134850     0.005394
PD227   PD        0.544343    0.575657    0.138218     0.005394
AU228   AU        0.537924    0.613515    0.167879     0.007504
PD229   PD        0.574016    0.575274    0.170982     0.005394
PD230   PD        0.574219    0.615034    0.136430     0.005394
AU231   AU        0.610185    0.578799    0.136933     0.007504
AU232   AU        0.610739    0.610985    0.169903     0.007504
PD233   PD        0.647516    0.577824    0.168451     0.005394
PD234   PD        0.643927    0.613464    0.132599     0.005394
PD235   PD        0.678687    0.613882    0.095452     0.005394
PD236   PD        0.718725    0.579650    0.171247     0.005394
PD237   PD        0.281061    0.652466    0.170853     0.005394
PD238   PD        0.312826    0.688049    0.170414     0.005394
PD239   PD        0.367012    0.645837    0.166360     0.005394
PD240   PD        0.347940    0.623214    0.088521     0.005394
PD241   PD        0.402049    0.684330    0.166479     0.005394
PD242   PD        0.436704    0.648159    0.168822     0.005394
PD243   PD        0.438527    0.684948    0.133536     0.005394
PD244   PD        0.473012    0.649310    0.133055     0.005394
PD245   PD        0.469146    0.686100    0.167881     0.005394
PD246   PD        0.504490    0.647703    0.167668     0.005394
PD247   PD        0.501352    0.681119    0.134330     0.005394
PD248   PD        0.540538    0.647916    0.138096     0.005394
PD249   PD        0.541175    0.684698    0.166106     0.005394
PD250   PD        0.575499    0.650658    0.170930     0.005394
PD251   PD        0.611530    0.690995    0.166441     0.005394
PD252   PD        0.647865    0.719875    0.096139     0.005394
PD253   PD        0.437722    0.721093    0.170831     0.005394
PD254   PD        0.505361    0.716847    0.168459     0.005394
PD255   PD        0.325670    0.115785    0.232517     0.005394
PD256   PD        0.391845    0.110438    0.237006     0.005394
PD257   PD        0.432965    0.079659    0.232707     0.005394
PD258   PD        0.429609    0.111459    0.204588     0.005394
PD259   PD        0.466959    0.117869    0.234375     0.005394
PD260   PD        0.500756    0.078147    0.231727     0.005394
PD261   PD        0.498483    0.109262    0.197978     0.005394
PD262   PD        0.535181    0.109296    0.234590     0.005394
PD263   PD        0.610601    0.113844    0.236500     0.005394
PD264   PD        0.250814    0.186898    0.236905     0.005394
PD265   PD        0.286339    0.148835    0.234026     0.005394
PD266   PD        0.291556    0.183954    0.202039     0.005394
PD267   PD        0.319537    0.150490    0.199710     0.005394
PD268   PD        0.322046    0.181186    0.234025     0.005394
PD269   PD        0.361254    0.145917    0.235728     0.005394
PD270   PD        0.358576    0.185847    0.203343     0.005394
PD271   PD        0.393470    0.146740    0.203599     0.005394
PD272   PD        0.391924    0.182468    0.233587     0.005394
PD273   PD        0.432059    0.149333    0.233136     0.005394
PD274   PD        0.432762    0.185353    0.201887     0.005394
PD275   PD        0.468150    0.147112    0.198935     0.005394
AU276   AU        0.465367    0.184884    0.235100     0.007504
PD277   PD        0.503046    0.149866    0.236412     0.005394
PD278   PD        0.503371    0.184146    0.202702     0.005394
PD279   PD        0.537552    0.150585    0.204929     0.005394
AU280   AU        0.539052    0.185421    0.237218     0.007504
PD281   PD        0.575450    0.147760    0.233721     0.005394
PD282   PD        0.573334    0.185246    0.200883     0.005394
PD283   PD        0.611917    0.148769    0.203361     0.005394
AU284   AU        0.610371    0.183300    0.235543     0.007504
PD285   PD        0.644596    0.147233    0.233017     0.005394
PD286   PD        0.644317    0.182088    0.203707     0.005394
PD287   PD        0.679555    0.182503    0.236960     0.005394
PD288   PD        0.174635    0.254673    0.237780     0.005394
PD289   PD        0.213350    0.214481    0.234242     0.005394
PD290   PD        0.214372    0.254019    0.202146     0.005394
PD291   PD        0.252613    0.217878    0.203178     0.005394
PD292   PD        0.247849    0.251953    0.234723     0.005394
PD293   PD        0.287784    0.220073    0.233571     0.005394
PD294   PD        0.288406    0.255723    0.201975     0.005394
PD295   PD        0.323593    0.221408    0.202996     0.005394
PD296   PD        0.321673    0.256500    0.237073     0.005394
AU297   AU        0.360112    0.219716    0.235987     0.007504
PD298   PD        0.358851    0.254811    0.203213     0.005394
AU299   AU        0.395120    0.219869    0.200638     0.007504
AU300   AU        0.395075    0.251885    0.236953     0.007504
AU301   AU        0.429432    0.218833    0.233781     0.007504
PD302   PD        0.428955    0.253607    0.200513     0.005394
PD303   PD        0.469068    0.219088    0.202016     0.005394
AU304   AU        0.464465    0.255788    0.234668     0.007504
PD305   PD        0.503811    0.217825    0.232911     0.005394
AU306   AU        0.501859    0.255441    0.201266     0.007504
PD307   PD        0.539320    0.219573    0.200298     0.005394
PD308   PD        0.538368    0.254075    0.236028     0.005394
PD309   PD        0.572430    0.219478    0.233812     0.005394
PD310   PD        0.573334    0.254141    0.202274     0.005394
PD311   PD        0.609361    0.221120    0.202210     0.005394
PD312   PD        0.610311    0.253645    0.234446     0.005394
AU313   AU        0.645690    0.219203    0.236043     0.007504
PD314   PD        0.644945    0.253961    0.203060     0.005394
PD315   PD        0.680630    0.220071    0.204754     0.005394
PD316   PD        0.682946    0.253406    0.239213     0.005394
PD317   PD        0.715423    0.216367    0.236871     0.005394
PD318   PD        0.718540    0.255640    0.205494     0.005394
PD319   PD        0.751686    0.254553    0.236938     0.005394
AU320   AU        0.141216    0.293107    0.235462     0.007504
PD321   PD        0.177523    0.290792    0.205385     0.005394
PD322   PD        0.177345    0.329224    0.236055     0.005394
PD323   PD        0.212536    0.289405    0.236292     0.005394
PD324   PD        0.212666    0.329181    0.202175     0.005394
PD325   PD        0.252377    0.289210    0.205239     0.005394
PD326   PD        0.247298    0.326195    0.234969     0.005394
PD327   PD        0.287526    0.291816    0.235642     0.005394
PD328   PD        0.288964    0.328155    0.204088     0.005394
PD329   PD        0.322250    0.290404    0.202543     0.005394
AU330   AU        0.321351    0.327767    0.235742     0.007504
PD331   PD        0.358121    0.289290    0.238197     0.005394
PD332   PD        0.355897    0.323970    0.205164     0.005394
PD333   PD        0.392153    0.291990    0.204105     0.005394
PD334   PD        0.392372    0.327225    0.234866     0.005394
AU335   AU        0.431162    0.289966    0.234897     0.007504
PD336   PD        0.430558    0.323927    0.202958     0.005394
AU337   AU        0.470294    0.291679    0.201630     0.007504
AU338   AU        0.468218    0.326002    0.234593     0.007504
AU339   AU        0.502382    0.291068    0.234972     0.007504
PD340   PD        0.503091    0.326374    0.202324     0.005394
AU341   AU        0.537411    0.291808    0.201570     0.007504
AU342   AU        0.537740    0.327257    0.233273     0.007504
AU343   AU        0.574386    0.292700    0.234942     0.007504
AU344   AU        0.577025    0.326446    0.202028     0.007504
PD345   PD        0.609785    0.293063    0.200251     0.005394
AU346   AU        0.611901    0.328458    0.234824     0.007504
AU347   AU        0.645887    0.288788    0.235407     0.007504
PD348   PD        0.643629    0.326633    0.202400     0.005394
PD349   PD        0.683046    0.290899    0.203111     0.005394
AU350   AU        0.680151    0.326425    0.234296     0.007504
AU351   AU        0.716312    0.293787    0.234123     0.007504
PD352   PD        0.716331    0.328805    0.199968     0.005394
PD353   PD        0.751396    0.296502    0.195366     0.005394
PD354   PD        0.750318    0.327450    0.236438     0.005394
PD355   PD        0.784370    0.291013    0.235514     0.005394
PD356   PD        0.109137    0.395375    0.238391     0.005394
PD357   PD        0.142685    0.361472    0.233498     0.005394
PD358   PD        0.142493    0.397345    0.205434     0.005394
AU359   AU        0.176881    0.363380    0.203332     0.007504
PD360   PD        0.176899    0.395490    0.235621     0.005394
PD361   PD        0.214273    0.363270    0.235884     0.005394
PD362   PD        0.216782    0.396901    0.203173     0.005394
PD363   PD        0.250025    0.360804    0.200516     0.005394
PD364   PD        0.248100    0.401491    0.235277     0.005394
PD365   PD        0.283661    0.362530    0.237226     0.005394
PD366   PD        0.285645    0.398957    0.201353     0.005394
PD367   PD        0.323596    0.361519    0.201507     0.005394
AU368   AU        0.320700    0.398204    0.235006     0.007504
AU369   AU        0.358685    0.360167    0.234676     0.007504
PD370   PD        0.355736    0.398944    0.203581     0.005394
PD371   PD        0.394513    0.363039    0.200391     0.005394
AU372   AU        0.392690    0.396584    0.234805     0.007504
AU373   AU        0.429090    0.361964    0.235118     0.007504
AU374   AU        0.428145    0.398444    0.203741     0.007504
PD375   PD        0.464682    0.361732    0.202123     0.005394
PD376   PD        0.466145    0.396726    0.235614     0.005394
AU377   AU        0.501974    0.362418    0.233969     0.007504
PD378   PD        0.503874    0.397365    0.201651     0.005394
AU379   AU        0.538906    0.361839    0.199284     0.007504
AU380   AU        0.538637    0.397676    0.235446     0.007504
AU381   AU        0.574395    0.361875    0.237203     0.007504
AU382   AU        0.575634    0.395998    0.200555     0.007504
AU383   AU        0.610611    0.361040    0.199688     0.007504
AU384   AU        0.611364    0.398923    0.233288     0.007504
AU385   AU        0.647112    0.364061    0.232953     0.007504
AU386   AU        0.645521    0.400796    0.201661     0.007504
PD387   PD        0.679841    0.365832    0.199983     0.005394
AU388   AU        0.682039    0.399903    0.233008     0.007504
PD389   PD        0.716766    0.364930    0.233437     0.005394
PD390   PD        0.718192    0.399223    0.199329     0.005394
PD391   PD        0.753563    0.364761    0.199756     0.005394
PD392   PD        0.751155    0.398995    0.235264     0.005394
PD393   PD        0.787476    0.359525    0.234488     0.005394
PD394   PD        0.786777    0.398102    0.203132     0.005394
PD395   PD        0.824536    0.399194    0.237080     0.005394
PD396   PD        0.068796    0.474575    0.206480     0.005394
PD397   PD        0.145148    0.432907    0.234560     0.005394
PD398   PD        0.145309    0.469949    0.201741     0.005394
PD399   PD        0.178642    0.434233    0.204741     0.005394
PD400   PD        0.179854    0.465043    0.234404     0.005394
PD401   PD        0.215492    0.433655    0.234733     0.005394
PD402   PD        0.215494    0.466025    0.200744     0.005394
AU403   AU        0.250558    0.432621    0.200520     0.007504
PD404   PD        0.251162    0.467809    0.232562     0.005394
PD405   PD        0.286474    0.432925    0.233415     0.005394
PD406   PD        0.285000    0.470406    0.199343     0.005394
PD407   PD        0.322136    0.432710    0.202765     0.005394
AU408   AU        0.318950    0.468939    0.236098     0.007504
AU409   AU        0.357309    0.433721    0.234899     0.007504
PD410   PD        0.356295    0.469042    0.204339     0.005394
AU411   AU        0.392333    0.436607    0.202106     0.007504
PD412   PD        0.393299    0.471476    0.232946     0.005394
PD413   PD        0.429119    0.431882    0.234496     0.005394
AU414   AU        0.430573    0.472389    0.199959     0.007504
AU415   AU        0.467119    0.432207    0.200143     0.007504
AU416   AU        0.466441    0.469067    0.233834     0.007504
PD417   PD        0.503856    0.436353    0.236770     0.005394
AU418   AU        0.503393    0.472048    0.200884     0.007504
AU419   AU        0.538951    0.432169    0.202087     0.007504
AU420   AU        0.537400    0.469795    0.234764     0.007504
AU421   AU        0.575317    0.434363    0.232997     0.007504
PD422   PD        0.576813    0.469763    0.202831     0.005394
AU423   AU        0.609102    0.433476    0.200129     0.007504
AU424   AU        0.611473    0.470231    0.234122     0.007504
AU425   AU        0.645419    0.435706    0.234455     0.007504
AU426   AU        0.648637    0.467780    0.201226     0.007504
AU427   AU        0.684521    0.434886    0.202224     0.007504
AU428   AU        0.682380    0.470563    0.235460     0.007504
AU429   AU        0.718500    0.434396    0.235037     0.007504
PD430   PD        0.716584    0.469928    0.204585     0.005394
PD431   PD        0.752697    0.435580    0.202300     0.005394
PD432   PD        0.751242    0.470823    0.235625     0.005394
PD433   PD        0.787301    0.435787    0.235489     0.005394
PD434   PD        0.788222    0.471718    0.202682     0.005394
PD435   PD        0.821576    0.469147    0.233004     0.005394
PD436   PD        0.145776    0.505751    0.234222     0.005394
PD437   PD        0.180683    0.500776    0.201504     0.005394
PD438   PD        0.178432    0.543008    0.233105     0.005394
PD439   PD        0.216193    0.504019    0.235040     0.005394
PD440   PD        0.217762    0.542196    0.203414     0.005394
PD441   PD        0.253732    0.506362    0.202912     0.005394
PD442   PD        0.247249    0.542795    0.238538     0.005394
AU443   AU        0.285001    0.506853    0.238354     0.007504
PD444   PD        0.287111    0.543011    0.201535     0.005394
PD445   PD        0.319466    0.507258    0.203401     0.005394
PD446   PD        0.320822    0.541341    0.236988     0.005394
PD447   PD        0.352470    0.502961    0.235222     0.005394
PD448   PD        0.360443    0.540010    0.199304     0.005394
PD449   PD        0.392737    0.506213    0.198753     0.005394
AU450   AU        0.396165    0.541869    0.232507     0.007504
AU451   AU        0.431531    0.507457    0.233597     0.007504
PD452   PD        0.434436    0.542720    0.201047     0.005394
AU453   AU        0.467677    0.506329    0.198812     0.007504
AU454   AU        0.468608    0.542420    0.233429     0.007504
AU455   AU        0.501294    0.504868    0.234635     0.007504
AU456   AU        0.503176    0.540850    0.202648     0.007504
AU457   AU        0.539335    0.507354    0.200534     0.007504
AU458   AU        0.539193    0.541501    0.234076     0.007504
AU459   AU        0.573356    0.505842    0.233726     0.007504
AU460   AU        0.573835    0.541492    0.201328     0.007504
PD461   PD        0.612192    0.508533    0.203732     0.005394
PD462   PD        0.609807    0.542112    0.234979     0.005394
AU463   AU        0.647382    0.503494    0.234031     0.007504
AU464   AU        0.646094    0.540533    0.202589     0.007504
AU465   AU        0.682040    0.504407    0.201750     0.007504
AU466   AU        0.682432    0.540896    0.234384     0.007504
AU467   AU        0.717243    0.506984    0.234064     0.007504
PD468   PD        0.716916    0.542704    0.202171     0.005394
PD469   PD        0.751979    0.504451    0.201031     0.005394
PD470   PD        0.754095    0.541648    0.235829     0.005394
PD471   PD        0.788230    0.506758    0.234596     0.005394
PD472   PD        0.146363    0.579577    0.231588     0.005394
PD473   PD        0.175526    0.577622    0.137250     0.005394
PD474   PD        0.180775    0.612642    0.234114     0.005394
PD475   PD        0.213994    0.575950    0.234870     0.005394
AU476   AU        0.214012    0.613818    0.203668     0.007504
AU477   AU        0.250943    0.579373    0.201157     0.007504
PD478   PD        0.248510    0.616507    0.236723     0.005394
PD479   PD        0.283212    0.580952    0.236802     0.005394
PD480   PD        0.284889    0.617003    0.203363     0.005394
PD481   PD        0.326366    0.575440    0.199127     0.005394
PD482   PD        0.332171    0.612135    0.231897     0.005394
PD483   PD        0.363722    0.577508    0.229842     0.005394
PD484   PD        0.364047    0.612075    0.197416     0.005394
PD485   PD        0.397166    0.578503    0.200746     0.005394
PD486   PD        0.401426    0.614039    0.232611     0.005394
AU487   AU        0.433994    0.578470    0.232989     0.007504
AU488   AU        0.436144    0.611977    0.200111     0.007504
AU489   AU        0.468143    0.577613    0.202216     0.007504
AU490   AU        0.469117    0.614356    0.232930     0.007504
AU491   AU        0.502813    0.575698    0.234125     0.007504
AU492   AU        0.503814    0.613192    0.201672     0.007504
AU493   AU        0.539026    0.577673    0.202009     0.007504
AU494   AU        0.538503    0.615367    0.235276     0.007504
AU495   AU        0.575616    0.577580    0.234897     0.007504
PD496   PD        0.574408    0.609679    0.202122     0.005394
AU497   AU        0.609384    0.576068    0.201828     0.007504
PD498   PD        0.607798    0.611608    0.233985     0.005394
PD499   PD        0.647675    0.577216    0.234679     0.005394
AU500   AU        0.645981    0.613967    0.201873     0.007504
PD501   PD        0.680416    0.578961    0.202724     0.005394
AU502   AU        0.681553    0.613018    0.233974     0.007504
PD503   PD        0.717929    0.577105    0.235763     0.005394
PD504   PD        0.720398    0.613331    0.202495     0.005394
PD505   PD        0.757026    0.577826    0.202397     0.005394
PD506   PD        0.752125    0.612181    0.236695     0.005394
PD507   PD        0.789824    0.577695    0.236594     0.005394
AU508   AU        0.213948    0.649094    0.237244     0.007504
PD509   PD        0.250359    0.652473    0.205923     0.005394
AU510   AU        0.247263    0.684946    0.238077     0.007504
PD511   PD        0.281758    0.646583    0.238745     0.005394
PD512   PD        0.283373    0.690044    0.204950     0.005394
PD513   PD        0.331911    0.650231    0.195061     0.005394
PD514   PD        0.317001    0.687501    0.236387     0.005394
PD515   PD        0.365587    0.649349    0.227467     0.005394
PD516   PD        0.368321    0.687284    0.200974     0.005394
PD517   PD        0.400709    0.646814    0.198211     0.005394
PD518   PD        0.398905    0.683685    0.232875     0.005394
AU519   AU        0.435952    0.649379    0.232154     0.007504
AU520   AU        0.434978    0.685719    0.202112     0.007504
AU521   AU        0.468713    0.650540    0.200763     0.007504
AU522   AU        0.468999    0.684519    0.233637     0.007504
AU523   AU        0.501802    0.650504    0.233477     0.007504
AU524   AU        0.506792    0.682983    0.200757     0.007504
PD525   PD        0.541007    0.648303    0.200119     0.005394
PD526   PD        0.540393    0.685797    0.236755     0.005394
AU527   AU        0.575525    0.648248    0.235089     0.007504
AU528   AU        0.576177    0.685457    0.202378     0.007504
PD529   PD        0.608306    0.646944    0.200819     0.005394
PD530   PD        0.610001    0.682634    0.235079     0.005394
PD531   PD        0.647405    0.648915    0.236301     0.005394
PD532   PD        0.645093    0.684691    0.200311     0.005394
PD533   PD        0.680721    0.650118    0.202924     0.005394
PD534   PD        0.682804    0.684417    0.235890     0.005394
AU535   AU        0.715906    0.647380    0.235746     0.007504
PD536   PD        0.279782    0.718935    0.238888     0.005394
PD537   PD        0.310295    0.743586    0.225141     0.005394
PD538   PD        0.360327    0.793479    0.231811     0.005394
PD539   PD        0.363820    0.719650    0.231598     0.005394
PD540   PD        0.399854    0.721245    0.199220     0.005394
PD541   PD        0.400312    0.757850    0.233484     0.005394
PD542   PD        0.436496    0.720694    0.232989     0.005394
PD543   PD        0.425278    0.799901    0.174122     0.005394
PD544   PD        0.472436    0.719939    0.201977     0.005394
PD545   PD        0.469932    0.757375    0.235291     0.005394
AU546   AU        0.505214    0.719325    0.235487     0.007504
PD547   PD        0.501971    0.754243    0.202009     0.005394
PD548   PD        0.539530    0.717978    0.199929     0.005394
PD549   PD        0.539633    0.752166    0.233901     0.005394
PD550   PD        0.573311    0.719958    0.236259     0.005394
PD551   PD        0.608835    0.716184    0.205368     0.005394
PD552   PD        0.609550    0.753756    0.232034     0.005394
PD553   PD        0.644244    0.719504    0.234936     0.005394
PD554   PD        0.435330    0.792111    0.234230     0.005394
PD555   PD        0.503269    0.789642    0.234332     0.005394
PD556   PD        0.391278    0.044131    0.297467     0.005394
PD557   PD        0.472940    0.023115    0.248606     0.005394
PD558   PD        0.539751    0.045409    0.299065     0.005394
PD559   PD        0.252627    0.114985    0.298060     0.005394
PD560   PD        0.289711    0.077625    0.296577     0.005394
PD561   PD        0.287395    0.112864    0.264576     0.005394
PD562   PD        0.320536    0.114600    0.301165     0.005394
PD563   PD        0.357699    0.077876    0.303041     0.005394
PD564   PD        0.356786    0.113592    0.269703     0.005394
PD565   PD        0.393410    0.075217    0.270059     0.005394
PD566   PD        0.394247    0.112578    0.299175     0.005394
PD567   PD        0.429787    0.080525    0.300004     0.005394
PD568   PD        0.429267    0.113036    0.268531     0.005394
PD569   PD        0.467194    0.079670    0.263472     0.005394
PD570   PD        0.467257    0.113357    0.300181     0.005394
PD571   PD        0.502625    0.077902    0.302174     0.005394
PD572   PD        0.501359    0.114046    0.270491     0.005394
PD573   PD        0.539416    0.076170    0.269247     0.005394
PD574   PD        0.540190    0.115808    0.302159     0.005394
PD575   PD        0.612303    0.080120    0.270220     0.005394
PD576   PD        0.572314    0.114914    0.267034     0.005394
PD577   PD        0.611879    0.114209    0.300014     0.005394
PD578   PD        0.636787    0.071743    0.299577     0.005394
PD579   PD        0.648743    0.113807    0.269507     0.005394
PD580   PD        0.678889    0.114392    0.297919     0.005394
PD581   PD        0.181656    0.185041    0.302037     0.005394
PD582   PD        0.215470    0.147315    0.299327     0.005394
PD583   PD        0.216938    0.180568    0.268631     0.005394
PD584   PD        0.251376    0.148472    0.265716     0.005394
PD585   PD        0.249863    0.183661    0.301304     0.005394
AU586   AU        0.287544    0.149904    0.300469     0.007504
PD587   PD        0.286703    0.184018    0.265366     0.005394
PD588   PD        0.320757    0.148474    0.267012     0.005394
AU589   AU        0.322509    0.183990    0.299607     0.007504
AU590   AU        0.354608    0.148054    0.300879     0.007504
AU591   AU        0.358647    0.183226    0.267272     0.007504
PD592   PD        0.392249    0.147378    0.269686     0.005394
AU593   AU        0.392907    0.181941    0.301473     0.007504
PD594   PD        0.429617    0.147644    0.301887     0.005394
PD595   PD        0.431004    0.185133    0.268121     0.005394
PD596   PD        0.465405    0.148402    0.268828     0.005394
AU597   AU        0.467104    0.182904    0.300845     0.007504
AU598   AU        0.502567    0.148801    0.302088     0.007504
AU599   AU        0.503187    0.185437    0.266965     0.007504
PD600   PD        0.536584    0.147085    0.265917     0.005394
AU601   AU        0.538532    0.181984    0.300424     0.007504
AU602   AU        0.575462    0.147374    0.299675     0.007504
AU603   AU        0.574503    0.183032    0.267106     0.007504
AU604   AU        0.611130    0.148120    0.268424     0.007504
AU605   AU        0.610102    0.181961    0.299859     0.007504
AU606   AU        0.644770    0.147148    0.301119     0.007504
AU607   AU        0.646139    0.183651    0.268768     0.007504
PD608   PD        0.684219    0.150371    0.268211     0.005394
AU609   AU        0.679025    0.185094    0.301770     0.007504
PD610   PD        0.713576    0.149784    0.302338     0.005394
PD611   PD        0.716048    0.185420    0.272156     0.005394
PD612   PD        0.750794    0.186298    0.303436     0.005394
PD613   PD        0.110279    0.255406    0.302673     0.005394
AU614   AU        0.142079    0.217635    0.299543     0.007504
PD615   PD        0.144869    0.256864    0.267672     0.005394
PD616   PD        0.179113    0.220301    0.269255     0.005394
AU617   AU        0.179809    0.255754    0.300371     0.007504
PD618   PD        0.212282    0.216889    0.299056     0.005394
PD619   PD        0.212467    0.255173    0.267555     0.005394
PD620   PD        0.249133    0.216919    0.267661     0.005394
AU621   AU        0.247610    0.255724    0.301509     0.007504
PD622   PD        0.285839    0.219665    0.300816     0.005394
PD623   PD        0.285737    0.254524    0.269126     0.005394
AU624   AU        0.324302    0.219244    0.267487     0.007504
AU625   AU        0.321549    0.253472    0.299965     0.007504
AU626   AU        0.358890    0.219311    0.301319     0.007504
AU627   AU        0.357991    0.253489    0.266502     0.007504
AU628   AU        0.394686    0.218050    0.269226     0.007504
PD629   PD        0.393908    0.252193    0.299151     0.005394
AU630   AU        0.429512    0.217465    0.300737     0.007504
AU631   AU        0.431208    0.255293    0.267294     0.007504
AU632   AU        0.467554    0.220415    0.266550     0.007504
AU633   AU        0.466210    0.254155    0.299776     0.007504
AU634   AU        0.502720    0.216923    0.302522     0.007504
AU635   AU        0.501478    0.253829    0.266921     0.007504
AU636   AU        0.536686    0.220481    0.267779     0.007504
AU637   AU        0.539681    0.254655    0.301304     0.007504
AU638   AU        0.573200    0.217661    0.300140     0.007504
PD639   PD        0.575375    0.253295    0.267263     0.005394
AU640   AU        0.611058    0.218622    0.266695     0.007504
AU641   AU        0.608982    0.252935    0.299218     0.007504
AU642   AU        0.644572    0.218233    0.301015     0.007504
AU643   AU        0.644409    0.254742    0.268763     0.007504
PD644   PD        0.680579    0.217622    0.269430     0.005394
PD645   PD        0.684073    0.254286    0.301956     0.005394
PD646   PD        0.717370    0.218812    0.303425     0.005394
PD647   PD        0.720767    0.254962    0.271396     0.005394
PD648   PD        0.754069    0.218797    0.265227     0.005394
AU649   AU        0.752932    0.253860    0.304502     0.007504
PD650   PD        0.787603    0.220312    0.300478     0.005394
PD651   PD        0.788127    0.253558    0.270819     0.005394
PD652   PD        0.898683    0.253500    0.298910     0.005394
PD653   PD        0.106950    0.325361    0.299793     0.005394
PD654   PD        0.141282    0.291497    0.299793     0.005394
AU655   AU        0.143248    0.327718    0.269137     0.007504
PD656   PD        0.176861    0.290530    0.267643     0.005394
AU657   AU        0.177908    0.325517    0.300335     0.007504
AU658   AU        0.213581    0.291004    0.300905     0.007504
AU659   AU        0.212083    0.326570    0.269514     0.007504
AU660   AU        0.249990    0.287068    0.267212     0.007504
AU661   AU        0.249319    0.323859    0.300824     0.007504
AU662   AU        0.285714    0.288297    0.301660     0.007504
AU663   AU        0.286547    0.326026    0.270386     0.007504
AU664   AU        0.322474    0.290438    0.268373     0.007504
AU665   AU        0.322666    0.325892    0.298768     0.007504
AU666   AU        0.357895    0.289346    0.299203     0.007504
AU667   AU        0.357888    0.327120    0.268768     0.007504
PD668   PD        0.394000    0.289936    0.268287     0.005394
AU669   AU        0.393312    0.325836    0.302460     0.007504
PD670   PD        0.431940    0.289811    0.301227     0.005394
AU671   AU        0.428323    0.326856    0.266164     0.007504
AU672   AU        0.465679    0.290856    0.267669     0.007504
AU673   AU        0.466303    0.326214    0.301229     0.007504
AU674   AU        0.502437    0.288284    0.300718     0.007504
AU675   AU        0.503239    0.325405    0.267124     0.007504
AU676   AU        0.539604    0.291061    0.267245     0.007504
AU677   AU        0.537392    0.325700    0.299265     0.007504
AU678   AU        0.575613    0.288525    0.300995     0.007504
AU679   AU        0.575262    0.325948    0.268277     0.007504
PD680   PD        0.610441    0.290842    0.265917     0.005394
AU681   AU        0.611722    0.328186    0.302138     0.007504
AU682   AU        0.646715    0.291240    0.301913     0.007504
PD683   PD        0.644542    0.326392    0.268108     0.005394
PD684   PD        0.680587    0.289331    0.266269     0.005394
AU685   AU        0.682060    0.326588    0.301254     0.007504
AU686   AU        0.717886    0.291775    0.300997     0.007504
AU687   AU        0.716013    0.326988    0.267174     0.007504
AU688   AU        0.752584    0.291277    0.270528     0.007504
PD689   PD        0.753760    0.327459    0.302482     0.005394
PD690   PD        0.785693    0.289621    0.303211     0.005394
PD691   PD        0.787771    0.327903    0.267187     0.005394
PD692   PD        0.898892    0.339730    0.273895     0.005394
PD693   PD        0.074290    0.360842    0.306853     0.005394
PD694   PD        0.110031    0.362240    0.268426     0.005394
AU695   AU        0.108296    0.396408    0.302890     0.007504
AU696   AU        0.144001    0.362014    0.300877     0.007504
AU697   AU        0.142703    0.396320    0.269107     0.007504
AU698   AU        0.177926    0.361362    0.268803     0.007504
AU699   AU        0.176827    0.396287    0.302415     0.007504
AU700   AU        0.211792    0.362127    0.300728     0.007504
AU701   AU        0.212805    0.397908    0.270265     0.007504
PD702   PD        0.249109    0.362935    0.268130     0.005394
AU703   AU        0.248684    0.399481    0.302784     0.007504
AU704   AU        0.286597    0.361931    0.300083     0.007504
AU705   AU        0.285891    0.399092    0.268977     0.007504
AU706   AU        0.322442    0.363387    0.267799     0.007504
AU707   AU        0.320932    0.399359    0.300786     0.007504
AU708   AU        0.357645    0.361429    0.299296     0.007504
AU709   AU        0.356526    0.396924    0.266384     0.007504
AU710   AU        0.392339    0.363435    0.267838     0.007504
AU711   AU        0.393183    0.397890    0.301780     0.007504
AU712   AU        0.429052    0.361528    0.299624     0.007504
AU713   AU        0.429811    0.400128    0.267005     0.007504
AU714   AU        0.465652    0.360709    0.267868     0.007504
AU715   AU        0.465657    0.397749    0.299068     0.007504
AU716   AU        0.501230    0.362318    0.298555     0.007504
AU717   AU        0.502730    0.397381    0.265724     0.007504
AU718   AU        0.538519    0.361688    0.267306     0.007504
AU719   AU        0.536851    0.400291    0.300189     0.007504
AU720   AU        0.575433    0.362272    0.301407     0.007504
AU721   AU        0.575113    0.398286    0.268590     0.007504
PD722   PD        0.613059    0.361734    0.268347     0.005394
AU723   AU        0.612833    0.398535    0.301137     0.007504
AU724   AU        0.648065    0.363405    0.302897     0.007504
AU725   AU        0.649086    0.397878    0.265587     0.007504
AU726   AU        0.682220    0.361501    0.269591     0.007504
AU727   AU        0.684113    0.398108    0.300406     0.007504
PD728   PD        0.717784    0.362839    0.301769     0.005394
PD729   PD        0.716412    0.397521    0.268193     0.005394
PD730   PD        0.751963    0.360682    0.268751     0.005394
PD731   PD        0.752616    0.399982    0.300399     0.005394
PD732   PD        0.787214    0.363987    0.300370     0.005394
AU733   AU        0.787608    0.401153    0.268388     0.007504
PD734   PD        0.822017    0.364888    0.268899     0.005394
PD735   PD        0.822398    0.398621    0.300270     0.005394
PD736   PD        0.861655    0.364773    0.298690     0.005394
PD737   PD        0.073305    0.433444    0.302144     0.005394
PD738   PD        0.107913    0.433517    0.269137     0.005394
PD739   PD        0.107972    0.468982    0.302847     0.005394
PD740   PD        0.141295    0.430416    0.301438     0.005394
PD741   PD        0.145855    0.468076    0.270345     0.005394
PD742   PD        0.179136    0.433258    0.266357     0.005394
PD743   PD        0.179699    0.469607    0.301698     0.005394
AU744   AU        0.215063    0.433780    0.301003     0.007504
AU745   AU        0.212218    0.469164    0.270075     0.007504
PD746   PD        0.250871    0.433043    0.269543     0.005394
AU747   AU        0.248856    0.471280    0.301530     0.007504
AU748   AU        0.284433    0.434529    0.301675     0.007504
AU749   AU        0.283753    0.470713    0.268372     0.007504
AU750   AU        0.321018    0.434365    0.265808     0.007504
AU751   AU        0.321043    0.468354    0.299825     0.007504
AU752   AU        0.357591    0.431554    0.300296     0.007504
AU753   AU        0.357152    0.468451    0.267570     0.007504
AU754   AU        0.393315    0.433435    0.268588     0.007504
PD755   PD        0.393057    0.470656    0.303532     0.005394
AU756   AU        0.430434    0.434494    0.301654     0.007504
AU757   AU        0.431855    0.470303    0.265907     0.007504
AU758   AU        0.466255    0.432856    0.267905     0.007504
AU759   AU        0.465037    0.469453    0.300673     0.007504
AU760   AU        0.502408    0.436685    0.299453     0.007504
AU761   AU        0.502314    0.471663    0.268077     0.007504
AU762   AU        0.538747    0.435574    0.269498     0.007504
AU763   AU        0.538152    0.470223    0.301846     0.007504
AU764   AU        0.575966    0.435169    0.300458     0.007504
AU765   AU        0.575169    0.471297    0.268113     0.007504
AU766   AU        0.609957    0.433443    0.265509     0.007504
AU767   AU        0.610817    0.470038    0.301397     0.007504
AU768   AU        0.648083    0.434759    0.300471     0.007504
AU769   AU        0.646906    0.470083    0.266992     0.007504
AU770   AU        0.682320    0.435691    0.265849     0.007504
AU771   AU        0.682111    0.469408    0.300907     0.007504
AU772   AU        0.716018    0.435887    0.300412     0.007504
AU773   AU        0.718970    0.471943    0.267227     0.007504
AU774   AU        0.752342    0.435474    0.268918     0.007504
AU775   AU        0.753651    0.473002    0.300082     0.007504
AU776   AU        0.787219    0.435438    0.300346     0.007504
AU777   AU        0.785076    0.471316    0.266433     0.007504
PD778   PD        0.822141    0.438106    0.266525     0.005394
AU779   AU        0.822280    0.470372    0.299283     0.007504
PD780   PD        0.858767    0.436849    0.297638     0.005394
PD781   PD        0.074200    0.502096    0.303482     0.005394
PD782   PD        0.110569    0.506196    0.268724     0.005394
PD783   PD        0.112604    0.542808    0.299731     0.005394
PD784   PD        0.143391    0.502041    0.301195     0.005394
PD785   PD        0.145001    0.540589    0.267186     0.005394
PD786   PD        0.180734    0.504475    0.270140     0.005394
AU787   AU        0.178618    0.543330    0.302629     0.007504
AU788   AU        0.215194    0.503939    0.303736     0.007504
PD789   PD        0.210699    0.543451    0.267254     0.005394
PD790   PD        0.246611    0.506220    0.268775     0.005394
AU791   AU        0.246645    0.541381    0.301350     0.007504
AU792   AU        0.283981    0.505357    0.301057     0.007504
PD793   PD        0.283476    0.544927    0.271042     0.005394
AU794   AU        0.322132    0.506326    0.269909     0.007504
PD795   PD        0.322472    0.540729    0.301941     0.005394
AU796   AU        0.357072    0.505325    0.305293     0.007504
PD797   PD        0.354484    0.541615    0.270086     0.005394
PD798   PD        0.396889    0.507256    0.265604     0.005394
AU799   AU        0.392860    0.543378    0.303659     0.007504
AU800   AU        0.430898    0.504287    0.301254     0.007504
PD801   PD        0.435148    0.542603    0.263809     0.005394
AU802   AU        0.466576    0.505434    0.268408     0.007504
AU803   AU        0.467300    0.543505    0.298237     0.007504
AU804   AU        0.502617    0.505061    0.300483     0.007504
AU805   AU        0.503878    0.540410    0.266808     0.007504
AU806   AU        0.540082    0.506380    0.265715     0.007504
AU807   AU        0.537254    0.541422    0.297905     0.007504
AU808   AU        0.575281    0.507576    0.303208     0.007504
AU809   AU        0.575729    0.540360    0.267307     0.007504
AU810   AU        0.610869    0.508372    0.267050     0.007504
AU811   AU        0.609369    0.542858    0.300048     0.007504
AU812   AU        0.646211    0.506960    0.299162     0.007504
PD813   PD        0.647187    0.541571    0.267229     0.005394
AU814   AU        0.682574    0.504042    0.267291     0.007504
AU815   AU        0.682748    0.540994    0.301968     0.007504
AU816   AU        0.718522    0.506327    0.300854     0.007504
AU817   AU        0.717181    0.541461    0.270038     0.007504
AU818   AU        0.752632    0.507890    0.268687     0.007504
AU819   AU        0.754423    0.543844    0.300285     0.007504
AU820   AU        0.788191    0.506993    0.301196     0.007504
PD821   PD        0.788486    0.542762    0.268505     0.005394
PD822   PD        0.820017    0.505423    0.267801     0.005394
PD823   PD        0.822289    0.542320    0.300935     0.005394
PD824   PD        0.856298    0.507439    0.302629     0.005394
PD825   PD        0.108164    0.614905    0.300091     0.005394
PD826   PD        0.146367    0.578328    0.301209     0.005394
PD827   PD        0.144017    0.613119    0.269629     0.005394
PD828   PD        0.178967    0.578531    0.267842     0.005394
AU829   AU        0.178706    0.614492    0.303487     0.007504
PD830   PD        0.213973    0.579028    0.302608     0.005394
AU831   AU        0.213301    0.613052    0.269817     0.007504
PD832   PD        0.250317    0.575458    0.270432     0.005394
AU833   AU        0.246855    0.615785    0.302498     0.007504
AU834   AU        0.281994    0.579728    0.303492     0.007504
PD835   PD        0.282423    0.615706    0.273620     0.005394
PD836   PD        0.319330    0.578534    0.267213     0.005394
AU837   AU        0.318421    0.614374    0.304762     0.007504
PD838   PD        0.357603    0.578425    0.303521     0.005394
PD839   PD        0.354584    0.616190    0.273558     0.005394
AU840   AU        0.401983    0.578441    0.264372     0.007504
PD841   PD        0.401188    0.609874    0.296600     0.005394
PD842   PD        0.432950    0.578335    0.302050     0.005394
PD843   PD        0.435647    0.612580    0.267662     0.005394
AU844   AU        0.468989    0.578479    0.266854     0.007504
AU845   AU        0.469577    0.615735    0.300546     0.007504
AU846   AU        0.501831    0.578019    0.299929     0.007504
AU847   AU        0.502916    0.615403    0.267092     0.007504
AU848   AU        0.539727    0.578786    0.266366     0.007504
AU849   AU        0.536988    0.616087    0.299830     0.007504
PD850   PD        0.574690    0.581194    0.299941     0.005394
AU851   AU        0.572892    0.614846    0.267618     0.007504
PD852   PD        0.610907    0.577043    0.267108     0.005394
AU853   AU        0.611318    0.615833    0.302030     0.007504
PD854   PD        0.646771    0.578217    0.299304     0.005394
PD855   PD        0.646334    0.613764    0.266594     0.005394
PD856   PD        0.683105    0.577041    0.265884     0.005394
AU857   AU        0.682437    0.613539    0.300934     0.007504
AU858   AU        0.717844    0.578024    0.300004     0.007504
PD859   PD        0.715381    0.612288    0.268073     0.005394
PD860   PD        0.751157    0.576552    0.267769     0.005394
PD861   PD        0.751194    0.614917    0.298684     0.005394
PD862   PD        0.824465    0.574829    0.266000     0.005394
PD863   PD        0.785124    0.613506    0.268580     0.005394
PD864   PD        0.837076    0.618010    0.243389     0.005394
PD865   PD        0.145682    0.649870    0.302518     0.005394
PD866   PD        0.179204    0.648843    0.267587     0.005394
PD867   PD        0.179274    0.686346    0.303411     0.005394
PD868   PD        0.214634    0.650582    0.302424     0.005394
AU869   AU        0.213211    0.683775    0.269829     0.007504
AU870   AU        0.247727    0.649249    0.269978     0.007504
AU871   AU        0.246939    0.684691    0.302831     0.007504
AU872   AU        0.283683    0.650774    0.304773     0.007504
PD873   PD        0.280145    0.683781    0.270710     0.005394
PD874   PD        0.316241    0.651736    0.270462     0.005394
PD875   PD        0.317110    0.686853    0.303381     0.005394
PD876   PD        0.357684    0.653419    0.304515     0.005394
PD877   PD        0.368083    0.688403    0.263423     0.005394
PD878   PD        0.402321    0.650301    0.263919     0.005394
PD879   PD        0.394415    0.685388    0.300130     0.005394
AU880   AU        0.431460    0.650441    0.299409     0.007504
PD881   PD        0.433184    0.686280    0.268576     0.005394
AU882   AU        0.467873    0.648770    0.267771     0.007504
AU883   AU        0.466592    0.685396    0.298309     0.007504
AU884   AU        0.503818    0.651036    0.299418     0.007504
AU885   AU        0.503529    0.686220    0.267186     0.007504
AU886   AU        0.539754    0.650614    0.266685     0.007504
AU887   AU        0.539396    0.685788    0.301130     0.007504
AU888   AU        0.573839    0.649665    0.300055     0.007504
AU889   AU        0.574319    0.685848    0.268181     0.007504
AU890   AU        0.611351    0.647249    0.268052     0.007504
AU891   AU        0.610622    0.684576    0.301520     0.007504
AU892   AU        0.646310    0.650235    0.300466     0.007504
AU893   AU        0.645789    0.683145    0.268104     0.007504
AU894   AU        0.682182    0.648693    0.268842     0.007504
AU895   AU        0.680788    0.683296    0.302463     0.007504
AU896   AU        0.717042    0.647799    0.300854     0.007504
PD897   PD        0.716602    0.684569    0.269050     0.005394
PD898   PD        0.752992    0.651238    0.267515     0.005394
PD899   PD        0.752580    0.683138    0.299625     0.005394
PD900   PD        0.784868    0.648827    0.303159     0.005394
PD901   PD        0.212955    0.718144    0.302913     0.005394
PD902   PD        0.249861    0.719121    0.272194     0.005394
PD903   PD        0.249033    0.756254    0.301965     0.005394
AU904   AU        0.283015    0.720550    0.301906     0.007504
PD905   PD        0.247205    0.758812    0.234866     0.005394
PD906   PD        0.314521    0.725300    0.269286     0.005394
PD907   PD        0.317869    0.760145    0.301172     0.005394
PD908   PD        0.350089    0.720257    0.300383     0.005394
PD909   PD        0.364222    0.756686    0.263675     0.005394
PD910   PD        0.402312    0.724287    0.266384     0.005394
PD911   PD        0.399334    0.757792    0.299924     0.005394
PD912   PD        0.431341    0.721595    0.301544     0.005394
PD913   PD        0.434196    0.754588    0.265066     0.005394
AU914   AU        0.468292    0.720707    0.265722     0.007504
AU915   AU        0.468435    0.755109    0.299059     0.007504
AU916   AU        0.502731    0.722235    0.301575     0.007504
AU917   AU        0.503661    0.755758    0.267495     0.007504
AU918   AU        0.538745    0.719392    0.268204     0.007504
PD919   PD        0.540233    0.756142    0.299319     0.005394
AU920   AU        0.575115    0.721047    0.301278     0.007504
AU921   AU        0.574867    0.755947    0.267189     0.007504
AU922   AU        0.611145    0.721931    0.269454     0.007504
PD923   PD        0.611008    0.755619    0.299160     0.005394
AU924   AU        0.645683    0.720192    0.301959     0.007504
PD925   PD        0.645238    0.755381    0.268773     0.005394
PD926   PD        0.681619    0.719157    0.266719     0.005394
PD927   PD        0.683893    0.753521    0.300433     0.005394
PD928   PD        0.717589    0.718580    0.300435     0.005394
PD929   PD        0.281946    0.793084    0.303985     0.005394
PD930   PD        0.362023    0.788650    0.298071     0.005394
PD931   PD        0.401742    0.790162    0.266632     0.005394
PD932   PD        0.395507    0.825126    0.300802     0.005394
PD933   PD        0.431315    0.791089    0.301416     0.005394
PD934   PD        0.467943    0.790565    0.266994     0.005394
PD935   PD        0.469258    0.822234    0.301503     0.005394
AU936   AU        0.504436    0.788558    0.300044     0.007504
PD937   PD        0.537631    0.792453    0.266771     0.005394
PD938   PD        0.534481    0.827130    0.295531     0.005394
PD939   PD        0.576929    0.790657    0.301767     0.005394
PD940   PD        0.642824    0.791835    0.299850     0.005394
PD941   PD        0.321180    0.045095    0.366945     0.005394
PD942   PD        0.357494    0.043744    0.336253     0.005394
PD943   PD        0.398104    0.043407    0.369036     0.005394
PD944   PD        0.430233    0.044301    0.333938     0.005394
PD945   PD        0.463151    0.046755    0.367092     0.005394
PD946   PD        0.502164    0.041874    0.336661     0.005394
PD947   PD        0.539413    0.043295    0.366272     0.005394
PD948   PD        0.570520    0.042844    0.337917     0.005394
PD949   PD        0.607694    0.042842    0.371556     0.005394
PD950   PD        0.217679    0.113300    0.331336     0.005394
PD951   PD        0.250067    0.112676    0.366153     0.005394
PD952   PD        0.286961    0.080093    0.369286     0.005394
PD953   PD        0.286003    0.114645    0.333935     0.005394
PD954   PD        0.322027    0.077129    0.335429     0.005394
AU955   AU        0.321791    0.111745    0.367620     0.007504
PD956   PD        0.359205    0.078882    0.365798     0.005394
PD957   PD        0.357878    0.112130    0.334356     0.005394
AU958   AU        0.391242    0.076415    0.333817     0.007504
AU959   AU        0.392250    0.113623    0.365257     0.007504
PD960   PD        0.426209    0.076834    0.368877     0.005394
AU961   AU        0.428107    0.113440    0.333854     0.007504
PD962   PD        0.464796    0.077059    0.333964     0.005394
AU963   AU        0.465101    0.111549    0.367642     0.007504
PD964   PD        0.501798    0.078418    0.367521     0.005394
PD965   PD        0.501744    0.113246    0.331150     0.005394
PD966   PD        0.538250    0.080156    0.334056     0.005394
PD967   PD        0.539248    0.112834    0.369554     0.005394
PD968   PD        0.571623    0.078903    0.366551     0.005394
PD969   PD        0.573515    0.114786    0.333538     0.005394
PD970   PD        0.608924    0.078670    0.335550     0.005394
AU971   AU        0.608440    0.112839    0.368947     0.007504
PD972   PD        0.645675    0.079005    0.368403     0.005394
PD973   PD        0.641209    0.113882    0.336514     0.005394
PD974   PD        0.722170    0.077560    0.370217     0.005394
PD975   PD        0.715902    0.114575    0.270291     0.005394
PD976   PD        0.146059    0.183940    0.333209     0.005394
PD977   PD        0.180661    0.149133    0.333781     0.005394
PD978   PD        0.178718    0.184307    0.368166     0.005394
PD979   PD        0.214700    0.148048    0.368107     0.005394
AU980   AU        0.216727    0.184501    0.332954     0.007504
PD981   PD        0.250964    0.147643    0.332489     0.005394
AU982   AU        0.250416    0.181360    0.368401     0.007504
PD983   PD        0.285007    0.148886    0.367855     0.005394
AU984   AU        0.286603    0.182236    0.333268     0.007504
AU985   AU        0.322676    0.146129    0.334581     0.007504
AU986   AU        0.321316    0.182852    0.367496     0.007504
AU987   AU        0.355923    0.147795    0.368138     0.007504
AU988   AU        0.354860    0.184195    0.332977     0.007504
AU989   AU        0.389721    0.147895    0.334011     0.007504
AU990   AU        0.392818    0.182470    0.365627     0.007504
AU991   AU        0.428863    0.148552    0.365951     0.007504
AU992   AU        0.428717    0.182135    0.333162     0.007504
PD993   PD        0.465069    0.147158    0.333664     0.005394
AU994   AU        0.465373    0.182930    0.367488     0.007504
PD995   PD        0.504356    0.145968    0.370005     0.005394
AU996   AU        0.504091    0.183206    0.335075     0.007504
AU997   AU        0.538404    0.148828    0.334924     0.007504
AU998   AU        0.540182    0.183069    0.367391     0.007504
AU999   AU        0.573031    0.148064    0.367184     0.007504
AU1000   AU        0.575891    0.183143    0.333732     0.007504
AU1001   AU        0.608773    0.148033    0.333524     0.007504
AU1002   AU        0.607790    0.182256    0.368710     0.007504
AU1003   AU        0.645609    0.147381    0.368610     0.007504
AU1004   AU        0.644542    0.184018    0.331795     0.007504
PD1005   PD        0.679135    0.147691    0.334634     0.005394
AU1006   AU        0.681488    0.181567    0.367401     0.007504
PD1007   PD        0.719341    0.146824    0.372015     0.005394
PD1008   PD        0.714314    0.184725    0.335573     0.005394
PD1009   PD        0.750108    0.151804    0.338434     0.005394
PD1010   PD        0.755035    0.185065    0.368027     0.005394
PD1011   PD        0.789923    0.186220    0.335240     0.005394
PD1012   PD        0.109461    0.253238    0.367596     0.005394
AU1013   AU        0.142082    0.218065    0.367351     0.007504
PD1014   PD        0.140893    0.252656    0.332679     0.005394
AU1015   AU        0.178578    0.220213    0.332346     0.007504
PD1016   PD        0.180194    0.250644    0.366951     0.005394
PD1017   PD        0.213580    0.217386    0.367824     0.005394
PD1018   PD        0.210134    0.257063    0.334106     0.005394
AU1019   AU        0.252065    0.218717    0.333142     0.007504
AU1020   AU        0.248602    0.252622    0.366200     0.007504
AU1021   AU        0.285083    0.218148    0.367083     0.007504
AU1022   AU        0.285279    0.254188    0.334041     0.007504
AU1023   AU        0.320580    0.220058    0.334558     0.007504
AU1024   AU        0.318627    0.252684    0.369015     0.007504
AU1025   AU        0.357931    0.218243    0.366782     0.007504
AU1026   AU        0.356205    0.255324    0.333196     0.007504
AU1027   AU        0.393891    0.215904    0.333595     0.007504
AU1028   AU        0.391182    0.255168    0.367423     0.007504
AU1029   AU        0.427459    0.216137    0.366293     0.007504
AU1030   AU        0.429979    0.254340    0.335153     0.007504
AU1031   AU        0.466781    0.219286    0.333578     0.007504
AU1032   AU        0.463985    0.253022    0.366563     0.007504
AU1033   AU        0.502135    0.217824    0.367995     0.007504
AU1034   AU        0.504290    0.252464    0.334018     0.007504
AU1035   AU        0.540974    0.218020    0.335105     0.007504
AU1036   AU        0.537639    0.253774    0.368442     0.007504
AU1037   AU        0.574930    0.219943    0.367280     0.007504
AU1038   AU        0.574182    0.254297    0.332940     0.007504
AU1039   AU        0.609027    0.220631    0.333045     0.007504
AU1040   AU        0.609880    0.253501    0.366146     0.007504
AU1041   AU        0.645718    0.216489    0.368234     0.007504
PD1042   PD        0.647652    0.255705    0.335109     0.005394
AU1043   AU        0.680509    0.219257    0.335929     0.007504
AU1044   AU        0.683547    0.255949    0.368503     0.007504
AU1045   AU        0.715491    0.218388    0.367589     0.007504
AU1046   AU        0.717474    0.253644    0.334589     0.007504
PD1047   PD        0.750119    0.219374    0.335662     0.005394
AU1048   AU        0.751658    0.255647    0.368689     0.007504
PD1049   PD        0.784976    0.218620    0.368472     0.005394
PD1050   PD        0.786287    0.255320    0.336943     0.005394
PD1051   PD        0.821849    0.252006    0.365422     0.005394
PD1052   PD        0.073353    0.290896    0.369665     0.005394
PD1053   PD        0.072334    0.330805    0.335764     0.005394
PD1054   PD        0.106443    0.289523    0.336162     0.005394
PD1055   PD        0.108413    0.327275    0.368039     0.005394
PD1056   PD        0.140180    0.291455    0.367116     0.005394
PD1057   PD        0.141222    0.323989    0.333601     0.005394
PD1058   PD        0.175521    0.291112    0.333932     0.005394
PD1059   PD        0.177163    0.326745    0.364093     0.005394
PD1060   PD        0.211201    0.292392    0.368387     0.005394
AU1061   AU        0.215106    0.324161    0.332191     0.007504
PD1062   PD        0.249454    0.288542    0.333506     0.005394
AU1063   AU        0.249971    0.326792    0.363451     0.007504
AU1064   AU        0.284127    0.289277    0.365819     0.007504
AU1065   AU        0.283423    0.327385    0.332167     0.007504
AU1066   AU        0.322474    0.291037    0.333248     0.007504
AU1067   AU        0.319910    0.325306    0.364800     0.007504
AU1068   AU        0.356291    0.291021    0.367274     0.007504
AU1069   AU        0.357733    0.327011    0.333871     0.007504
AU1070   AU        0.392611    0.289065    0.331523     0.007504
AU1071   AU        0.391878    0.327553    0.369109     0.007504
AU1072   AU        0.430482    0.289802    0.365470     0.007504
AU1073   AU        0.430246    0.326756    0.334818     0.007504
AU1074   AU        0.465833    0.289514    0.334663     0.007504
AU1075   AU        0.465313    0.326322    0.368392     0.007504
AU1076   AU        0.502794    0.289941    0.365475     0.007504
AU1077   AU        0.501638    0.325820    0.333586     0.007504
AU1078   AU        0.541451    0.289757    0.334473     0.007504
AU1079   AU        0.538736    0.327290    0.366527     0.007504
AU1080   AU        0.573263    0.289544    0.368692     0.007504
AU1081   AU        0.575201    0.326849    0.334211     0.007504
AU1082   AU        0.610432    0.292690    0.336062     0.007504
AU1083   AU        0.610252    0.326668    0.367949     0.007504
AU1084   AU        0.643971    0.289276    0.367509     0.007504
AU1085   AU        0.645918    0.328336    0.333857     0.007504
PD1086   PD        0.681458    0.292191    0.334845     0.005394
AU1087   AU        0.681799    0.327115    0.368177     0.007504
AU1088   AU        0.718268    0.290785    0.366454     0.007504
AU1089   AU        0.716119    0.327798    0.333143     0.007504
AU1090   AU        0.753408    0.289364    0.335120     0.007504
AU1091   AU        0.750874    0.326245    0.369211     0.007504
AU1092   AU        0.786686    0.289528    0.367817     0.007504
PD1093   PD        0.788655    0.325709    0.333773     0.005394
PD1094   PD        0.824638    0.291368    0.333030     0.005394
PD1095   PD        0.824139    0.324099    0.367396     0.005394
PD1096   PD        0.859977    0.292582    0.368986     0.005394
PD1097   PD        0.856402    0.325347    0.330354     0.005394
AU1098   AU        0.073374    0.363783    0.367023     0.007504
PD1099   PD        0.072502    0.400359    0.335433     0.005394
AU1100   AU        0.109768    0.362229    0.336049     0.007504
AU1101   AU        0.108017    0.398795    0.370112     0.007504
PD1102   PD        0.143894    0.363779    0.369082     0.005394
AU1103   AU        0.143033    0.398922    0.335877     0.007504
AU1104   AU        0.177636    0.362100    0.332625     0.007504
AU1105   AU        0.180076    0.396034    0.366733     0.007504
PD1106   PD        0.214176    0.361020    0.366335     0.005394
AU1107   AU        0.213391    0.396976    0.332820     0.007504
AU1108   AU        0.248099    0.362011    0.331381     0.007504
AU1109   AU        0.248558    0.398555    0.366952     0.007504
AU1110   AU        0.286309    0.363391    0.365510     0.007504
AU1111   AU        0.285427    0.397527    0.333554     0.007504
AU1112   AU        0.322188    0.359837    0.332992     0.007504
AU1113   AU        0.323208    0.398113    0.366473     0.007504
AU1114   AU        0.355570    0.361624    0.367375     0.007504
AU1115   AU        0.356723    0.397008    0.331748     0.007504
AU1116   AU        0.391294    0.362185    0.333430     0.007504
AU1117   AU        0.392132    0.396357    0.368256     0.007504
AU1118   AU        0.428825    0.362792    0.368146     0.007504
AU1119   AU        0.429908    0.395789    0.334310     0.007504
AU1120   AU        0.465993    0.361891    0.332782     0.007504
AU1121   AU        0.464997    0.398668    0.367813     0.007504
AU1122   AU        0.500099    0.362118    0.366726     0.007504
AU1123   AU        0.501424    0.399433    0.332306     0.007504
PD1124   PD        0.537368    0.364238    0.332303     0.005394
AU1125   AU        0.535699    0.397599    0.366294     0.007504
AU1126   AU        0.575441    0.362039    0.367033     0.007504
AU1127   AU        0.575361    0.398344    0.333611     0.007504
AU1128   AU        0.610778    0.362211    0.336260     0.007504
AU1129   AU        0.610145    0.397574    0.367287     0.007504
AU1130   AU        0.644617    0.360887    0.367008     0.007504
AU1131   AU        0.647895    0.397241    0.335059     0.007504
AU1132   AU        0.682003    0.363329    0.333572     0.007504
AU1133   AU        0.681762    0.399975    0.367972     0.007504
AU1134   AU        0.717565    0.362563    0.366675     0.007504
AU1135   AU        0.715350    0.399167    0.333721     0.007504
PD1136   PD        0.752527    0.360653    0.334431     0.005394
PD1137   PD        0.755989    0.396139    0.367479     0.005394
PD1138   PD        0.787354    0.359389    0.367768     0.005394
PD1139   PD        0.788551    0.397184    0.333027     0.005394
PD1140   PD        0.824363    0.361509    0.332929     0.005394
PD1141   PD        0.823296    0.397278    0.369974     0.005394
PD1142   PD        0.859645    0.358819    0.363484     0.005394
PD1143   PD        0.855409    0.399793    0.333022     0.005394
PD1144   PD        0.073012    0.435562    0.369784     0.005394
PD1145   PD        0.070984    0.464105    0.338960     0.005394
PD1146   PD        0.107124    0.432371    0.336121     0.005394
AU1147   AU        0.107910    0.469348    0.368571     0.007504
PD1148   PD        0.140974    0.433123    0.365839     0.005394
AU1149   AU        0.142011    0.468619    0.335473     0.007504
AU1150   AU        0.176850    0.433402    0.333684     0.007504
AU1151   AU        0.176893    0.470981    0.367140     0.007504
PD1152   PD        0.211936    0.433361    0.368317     0.005394
AU1153   AU        0.212305    0.467955    0.334609     0.007504
AU1154   AU        0.250889    0.434874    0.334519     0.007504
AU1155   AU        0.250005    0.470230    0.365394     0.007504
AU1156   AU        0.285659    0.434313    0.366912     0.007504
AU1157   AU        0.284456    0.470334    0.333076     0.007504
AU1158   AU        0.320609    0.433995    0.333014     0.007504
AU1159   AU        0.321163    0.469122    0.366929     0.007504
AU1160   AU        0.356109    0.434641    0.366382     0.007504
AU1161   AU        0.356930    0.469952    0.335776     0.007504
AU1162   AU        0.392203    0.432816    0.333141     0.007504
AU1163   AU        0.393451    0.469124    0.368440     0.007504
AU1164   AU        0.429818    0.433710    0.367172     0.007504
AU1165   AU        0.431076    0.467887    0.334717     0.007504
AU1166   AU        0.466208    0.433991    0.335631     0.007504
AU1167   AU        0.466897    0.471866    0.368511     0.007504
AU1168   AU        0.502415    0.434520    0.366390     0.007504
AU1169   AU        0.501853    0.470939    0.332354     0.007504
AU1170   AU        0.538893    0.434948    0.332050     0.007504
AU1171   AU        0.537840    0.472197    0.366893     0.007504
AU1172   AU        0.574925    0.435076    0.367265     0.007504
AU1173   AU        0.573959    0.472249    0.333448     0.007504
AU1174   AU        0.609447    0.433699    0.334250     0.007504
AU1175   AU        0.610269    0.471129    0.369267     0.007504
AU1176   AU        0.645186    0.437136    0.366724     0.007504
AU1177   AU        0.646440    0.471508    0.335208     0.007504
AU1178   AU        0.682331    0.435679    0.334447     0.007504
AU1179   AU        0.681125    0.469658    0.368592     0.007504
AU1180   AU        0.718538    0.434094    0.367198     0.007504
AU1181   AU        0.717237    0.470368    0.333881     0.007504
PD1182   PD        0.754581    0.434935    0.333292     0.005394
AU1183   AU        0.753617    0.469433    0.365935     0.007504
AU1184   AU        0.787825    0.436854    0.366719     0.007504
AU1185   AU        0.788350    0.471916    0.332442     0.007504
AU1186   AU        0.819946    0.435556    0.334056     0.007504
PD1187   PD        0.820713    0.470975    0.367323     0.005394
PD1188   PD        0.855325    0.435375    0.366620     0.005394
PD1189   PD        0.857738    0.472058    0.335321     0.005394
PD1190   PD        0.072779    0.508929    0.364706     0.005394
PD1191   PD        0.075553    0.543205    0.334995     0.005394
PD1192   PD        0.110089    0.506427    0.334892     0.005394
PD1193   PD        0.108873    0.542439    0.366935     0.005394
AU1194   AU        0.142802    0.506520    0.368914     0.007504
PD1195   PD        0.145004    0.540904    0.333249     0.005394
AU1196   AU        0.176780    0.506154    0.333533     0.007504
AU1197   AU        0.177250    0.543649    0.367493     0.007504
AU1198   AU        0.211940    0.506032    0.366331     0.007504
AU1199   AU        0.213655    0.542456    0.333851     0.007504
AU1200   AU        0.249583    0.507242    0.335093     0.007504
AU1201   AU        0.249222    0.541811    0.367273     0.007504
AU1202   AU        0.286271    0.505709    0.366228     0.007504
AU1203   AU        0.282797    0.543230    0.334332     0.007504
AU1204   AU        0.321232    0.506112    0.333832     0.007504
AU1205   AU        0.318622    0.541306    0.367352     0.007504
AU1206   AU        0.355498    0.505311    0.370054     0.007504
AU1207   AU        0.356407    0.541812    0.336217     0.007504
AU1208   AU        0.394365    0.505720    0.335240     0.007504
AU1209   AU        0.390934    0.543935    0.367545     0.007504
AU1210   AU        0.430749    0.508255    0.365686     0.007504
AU1211   AU        0.430859    0.541104    0.334324     0.007504
AU1212   AU        0.466938    0.506019    0.332474     0.007504
AU1213   AU        0.465216    0.543441    0.367052     0.007504
AU1214   AU        0.499200    0.508176    0.369026     0.007504
AU1215   AU        0.501247    0.542407    0.334621     0.007504
AU1216   AU        0.536935    0.508972    0.333775     0.007504
AU1217   AU        0.537177    0.542651    0.367105     0.007504
AU1218   AU        0.573713    0.509224    0.367791     0.007504
AU1219   AU        0.575849    0.544027    0.333170     0.007504
AU1220   AU        0.611675    0.505592    0.333770     0.007504
AU1221   AU        0.610218    0.542366    0.367470     0.007504
AU1222   AU        0.646456    0.507234    0.368845     0.007504
AU1223   AU        0.646147    0.543680    0.334314     0.007504
PD1224   PD        0.683862    0.505745    0.333445     0.005394
AU1225   AU        0.681461    0.540468    0.367821     0.007504
AU1226   AU        0.719221    0.505708    0.367876     0.007504
AU1227   AU        0.715964    0.540735    0.334906     0.007504
AU1228   AU        0.751873    0.507579    0.334387     0.007504
AU1229   AU        0.752124    0.541838    0.367929     0.007504
AU1230   AU        0.787944    0.505955    0.367527     0.007504
AU1231   AU        0.787897    0.543289    0.337591     0.007504
AU1232   AU        0.822852    0.505776    0.335987     0.007504
AU1233   AU        0.822927    0.541535    0.367084     0.007504
PD1234   PD        0.858916    0.505603    0.367648     0.005394
PD1235   PD        0.859452    0.539102    0.336622     0.005394
PD1236   PD        0.076990    0.580925    0.369257     0.005394
PD1237   PD        0.110835    0.578795    0.336409     0.005394
PD1238   PD        0.108694    0.616490    0.368868     0.005394
AU1239   AU        0.142312    0.581261    0.367542     0.007504
PD1240   PD        0.144450    0.614904    0.334581     0.005394
PD1241   PD        0.179064    0.577923    0.336203     0.005394
AU1242   AU        0.179023    0.614970    0.368156     0.007504
AU1243   AU        0.212553    0.578691    0.366476     0.007504
AU1244   AU        0.212550    0.613915    0.334616     0.007504
PD1245   PD        0.247368    0.579492    0.335105     0.005394
AU1246   AU        0.247584    0.616415    0.369068     0.007504
AU1247   AU        0.284523    0.578598    0.366570     0.007504
PD1248   PD        0.282853    0.616332    0.335754     0.005394
PD1249   PD        0.321852    0.578650    0.335806     0.005394
AU1250   AU        0.319478    0.616787    0.368313     0.007504
AU1251   AU        0.355691    0.577724    0.369316     0.007504
AU1252   AU        0.355123    0.614940    0.337531     0.007504
AU1253   AU        0.392118    0.579245    0.335075     0.007504
AU1254   AU        0.393221    0.616166    0.367525     0.007504
AU1255   AU        0.427936    0.579618    0.366018     0.007504
AU1256   AU        0.430856    0.615948    0.334837     0.007504
AU1257   AU        0.466880    0.580823    0.332571     0.007504
AU1258   AU        0.467866    0.614323    0.367653     0.007504
AU1259   AU        0.503625    0.578568    0.366100     0.007504
AU1260   AU        0.502624    0.614242    0.333625     0.007504
AU1261   AU        0.538847    0.578400    0.331555     0.007504
AU1262   AU        0.539691    0.613391    0.368612     0.007504
AU1263   AU        0.573246    0.576305    0.368154     0.007504
AU1264   AU        0.572905    0.615054    0.334724     0.007504
AU1265   AU        0.610939    0.579325    0.334511     0.007504
AU1266   AU        0.611697    0.614496    0.367243     0.007504
AU1267   AU        0.646660    0.578799    0.370146     0.007504
AU1268   AU        0.648103    0.615720    0.335191     0.007504
AU1269   AU        0.682320    0.578011    0.333687     0.007504
AU1270   AU        0.682298    0.613804    0.367539     0.007504
PD1271   PD        0.718629    0.579784    0.367569     0.005394
AU1272   AU        0.717557    0.612740    0.333958     0.007504
AU1273   AU        0.751016    0.575614    0.334024     0.007504
PD1274   PD        0.749280    0.610156    0.367142     0.005394
PD1275   PD        0.787912    0.577466    0.371181     0.005394
AU1276   AU        0.785443    0.613062    0.334999     0.007504
PD1277   PD        0.821619    0.577629    0.334395     0.005394
PD1278   PD        0.823761    0.614162    0.367979     0.005394
PD1279   PD        0.854521    0.579697    0.368004     0.005394
AU1280   AU        0.143639    0.649652    0.367695     0.007504
PD1281   PD        0.142696    0.681266    0.333522     0.005394
AU1282   AU        0.178881    0.649640    0.335216     0.007504
AU1283   AU        0.178608    0.685764    0.368091     0.007504
AU1284   AU        0.212710    0.650466    0.369270     0.007504
AU1285   AU        0.213957    0.685395    0.335655     0.007504
AU1286   AU        0.246586    0.651071    0.335956     0.007504
AU1287   AU        0.249454    0.685909    0.368238     0.007504
AU1288   AU        0.283676    0.650219    0.367643     0.007504
AU1289   AU        0.284047    0.685228    0.336030     0.007504
AU1290   AU        0.320699    0.651042    0.335289     0.007504
AU1291   AU        0.320299    0.684656    0.368857     0.007504
AU1292   AU        0.356692    0.650408    0.367502     0.007504
PD1293   PD        0.356644    0.685043    0.334720     0.005394
PD1294   PD        0.393631    0.650512    0.337655     0.005394
AU1295   AU        0.394133    0.686453    0.366742     0.007504
AU1296   AU        0.429908    0.652299    0.368299     0.007504
AU1297   AU        0.432416    0.687351    0.335137     0.007504
AU1298   AU        0.467248    0.651362    0.334330     0.007504
AU1299   AU        0.467333    0.687135    0.366735     0.007504
AU1300   AU        0.504149    0.650651    0.367682     0.007504
AU1301   AU        0.502811    0.685673    0.332891     0.007504
AU1302   AU        0.539140    0.650213    0.333725     0.007504
AU1303   AU        0.539069    0.687219    0.365149     0.007504
AU1304   AU        0.574608    0.651191    0.367241     0.007504
AU1305   AU        0.574519    0.684927    0.332732     0.007504
AU1306   AU        0.609318    0.650658    0.332882     0.007504
AU1307   AU        0.609466    0.685360    0.365613     0.007504
AU1308   AU        0.647116    0.649724    0.368172     0.007504
AU1309   AU        0.645801    0.684774    0.334352     0.007504
AU1310   AU        0.682122    0.650635    0.334373     0.007504
AU1311   AU        0.680961    0.685806    0.367294     0.007504
AU1312   AU        0.714844    0.649205    0.367487     0.007504
AU1313   AU        0.715396    0.684047    0.333576     0.007504
AU1314   AU        0.750600    0.650299    0.333973     0.007504
PD1315   PD        0.750195    0.686636    0.365221     0.005394
PD1316   PD        0.784002    0.648606    0.366021     0.005394
PD1317   PD        0.784425    0.683770    0.336172     0.005394
PD1318   PD        0.177987    0.721258    0.336190     0.005394
AU1319   AU        0.214628    0.718706    0.368356     0.007504
PD1320   PD        0.214337    0.754666    0.332508     0.005394
AU1321   AU        0.249414    0.719801    0.335557     0.007504
PD1322   PD        0.250510    0.753416    0.369810     0.005394
PD1323   PD        0.283027    0.718467    0.370549     0.005394
PD1324   PD        0.282998    0.755910    0.337513     0.005394
PD1325   PD        0.317428    0.724455    0.336052     0.005394
PD1326   PD        0.319645    0.757937    0.366506     0.005394
PD1327   PD        0.361078    0.724123    0.368159     0.005394
PD1328   PD        0.363668    0.755442    0.330195     0.005394
PD1329   PD        0.397048    0.722451    0.333734     0.005394
AU1330   AU        0.395577    0.756717    0.367963     0.007504
AU1331   AU        0.430531    0.723429    0.366733     0.007504
AU1332   AU        0.432501    0.755520    0.333370     0.007504
AU1333   AU        0.467696    0.719718    0.333228     0.007504
AU1334   AU        0.465932    0.756606    0.369194     0.007504
PD1335   PD        0.501990    0.722720    0.367441     0.005394
PD1336   PD        0.502417    0.756390    0.333389     0.005394
AU1337   AU        0.540097    0.721989    0.333727     0.007504
PD1338   PD        0.538351    0.755110    0.366277     0.005394
AU1339   AU        0.574508    0.719122    0.366182     0.007504
AU1340   AU        0.576053    0.757007    0.334876     0.007504
AU1341   AU        0.609241    0.719369    0.332958     0.007504
PD1342   PD        0.610362    0.754141    0.366286     0.005394
AU1343   AU        0.645672    0.722001    0.364479     0.007504
PD1344   PD        0.646398    0.756683    0.333645     0.005394
PD1345   PD        0.682415    0.719068    0.335541     0.005394
PD1346   PD        0.681447    0.754956    0.368185     0.005394
PD1347   PD        0.714404    0.718591    0.367312     0.005394
PD1348   PD        0.718201    0.756569    0.331662     0.005394
PD1349   PD        0.749419    0.720895    0.334315     0.005394
PD1350   PD        0.287000    0.791644    0.366828     0.005394
PD1351   PD        0.322337    0.790945    0.336570     0.005394
PD1352   PD        0.323897    0.829591    0.365907     0.005394
PD1353   PD        0.361024    0.789701    0.366413     0.005394
PD1354   PD        0.360880    0.825048    0.334713     0.005394
PD1355   PD        0.394754    0.790145    0.336620     0.005394
PD1356   PD        0.393558    0.825337    0.366693     0.005394
PD1357   PD        0.430298    0.789727    0.370223     0.005394
PD1358   PD        0.432222    0.823214    0.336359     0.005394
PD1359   PD        0.466992    0.789098    0.333042     0.005394
PD1360   PD        0.468033    0.827435    0.369902     0.005394
PD1361   PD        0.500364    0.791786    0.370568     0.005394
PD1362   PD        0.501416    0.824644    0.334147     0.005394
PD1363   PD        0.539023    0.790880    0.333185     0.005394
PD1364   PD        0.536474    0.823345    0.363928     0.005394
PD1365   PD        0.574144    0.791831    0.368403     0.005394
PD1366   PD        0.572383    0.863858    0.368046     0.005394
AU1367   AU        0.612255    0.790198    0.335455     0.007504
PD1368   PD        0.612471    0.865447    0.334881     0.005394
PD1369   PD        0.646200    0.788384    0.366953     0.005394
PD1370   PD        0.284307    0.042006    0.405305     0.005394
PD1371   PD        0.320761    0.043777    0.435901     0.005394
PD1372   PD        0.354626    0.043912    0.402023     0.005394
PD1373   PD        0.395277    0.043209    0.437386     0.005394
AU1374   AU        0.433868    0.005739    0.433940     0.007504
PD1375   PD        0.428288    0.044241    0.404981     0.005394
PD1376   PD        0.465189    0.010196    0.400005     0.005394
PD1377   PD        0.466851    0.042011    0.436596     0.005394
PD1378   PD        0.503078    0.005953    0.435412     0.005394
PD1379   PD        0.499749    0.043979    0.402458     0.005394
PD1380   PD        0.535472    0.044731    0.436153     0.005394
PD1381   PD        0.572049    0.042340    0.398783     0.005394
PD1382   PD        0.605460    0.044795    0.434307     0.005394
PD1383   PD        0.603398    0.001708    0.397722     0.005394
PD1384   PD        0.145466    0.111252    0.471421     0.005394
PD1385   PD        0.180119    0.076520    0.474334     0.005394
PD1386   PD        0.216084    0.115155    0.399667     0.005394
PD1387   PD        0.251673    0.076184    0.400499     0.005394
PD1388   PD        0.251486    0.115642    0.436857     0.005394
AU1389   AU        0.286586    0.080194    0.434636     0.007504
PD1390   PD        0.284933    0.113505    0.401710     0.005394
PD1391   PD        0.318401    0.078155    0.402565     0.005394
AU1392   AU        0.321527    0.112511    0.434312     0.007504
AU1393   AU        0.356195    0.078497    0.435168     0.007504
AU1394   AU        0.355292    0.111511    0.399942     0.007504
PD1395   PD        0.392319    0.076660    0.401728     0.005394
AU1396   AU        0.391933    0.112652    0.433707     0.007504
PD1397   PD        0.430100    0.079541    0.435622     0.005394
PD1398   PD        0.428387    0.112834    0.399476     0.005394
AU1399   AU        0.465423    0.076240    0.402787     0.007504
PD1400   PD        0.464903    0.111626    0.433722     0.005394
AU1401   AU        0.501591    0.077610    0.435045     0.007504
AU1402   AU        0.500160    0.111527    0.401438     0.007504
AU1403   AU        0.538131    0.078830    0.400150     0.007504
AU1404   AU        0.537705    0.115295    0.435294     0.007504
AU1405   AU        0.569614    0.077051    0.434365     0.007504
AU1406   AU        0.575747    0.112736    0.401775     0.007504
PD1407   PD        0.605960    0.075777    0.401189     0.005394
AU1408   AU        0.607060    0.112509    0.434998     0.007504
PD1409   PD        0.641183    0.076441    0.435449     0.005394
PD1410   PD        0.644654    0.112294    0.402347     0.005394
PD1411   PD        0.679765    0.075932    0.408169     0.005394
PD1412   PD        0.679286    0.111439    0.435631     0.005394
PD1413   PD        0.718482    0.074262    0.433113     0.005394
PD1414   PD        0.714169    0.111532    0.403851     0.005394
PD1415   PD        0.750005    0.111063    0.435712     0.005394
PD1416   PD        0.107646    0.145566    0.397156     0.005394
PD1417   PD        0.144724    0.148150    0.434151     0.005394
AU1418   AU        0.144836    0.181744    0.400561     0.007504
PD1419   PD        0.182436    0.149456    0.402443     0.005394
PD1420   PD        0.177202    0.183231    0.432838     0.005394
PD1421   PD        0.215552    0.146371    0.435407     0.005394
AU1422   AU        0.215858    0.183409    0.401266     0.007504
PD1423   PD        0.249650    0.148798    0.402527     0.005394
AU1424   AU        0.248491    0.183305    0.435583     0.007504
AU1425   AU        0.286950    0.147425    0.433605     0.007504
AU1426   AU        0.285851    0.183547    0.400721     0.007504
AU1427   AU        0.319319    0.147101    0.400324     0.007504
AU1428   AU        0.321658    0.181788    0.434213     0.007504
AU1429   AU        0.356955    0.146586    0.433201     0.007504
AU1430   AU        0.356379    0.182356    0.400216     0.007504
AU1431   AU        0.393268    0.148291    0.400372     0.007504
AU1432   AU        0.391256    0.181967    0.432679     0.007504
PD1433   PD        0.428201    0.148684    0.433882     0.005394
AU1434   AU        0.426790    0.183021    0.399635     0.007504
PD1435   PD        0.465924    0.146550    0.399108     0.005394
AU1436   AU        0.464812    0.184321    0.435733     0.007504
AU1437   AU        0.499767    0.148702    0.433132     0.007504
AU1438   AU        0.502036    0.182565    0.401235     0.007504
AU1439   AU        0.538435    0.147766    0.401053     0.007504
AU1440   AU        0.538057    0.181563    0.433833     0.007504
PD1441   PD        0.574998    0.148538    0.435699     0.005394
AU1442   AU        0.572634    0.182386    0.402032     0.007504
AU1443   AU        0.610565    0.148403    0.402563     0.007504
AU1444   AU        0.609472    0.183325    0.433129     0.007504
PD1445   PD        0.644903    0.147995    0.434079     0.005394
AU1446   AU        0.646924    0.182291    0.401139     0.007504
PD1447   PD        0.680064    0.146589    0.402855     0.005394
PD1448   PD        0.683634    0.185896    0.436188     0.005394
AU1449   AU        0.716017    0.149182    0.435671     0.007504
AU1450   AU        0.716360    0.184492    0.401457     0.007504
PD1451   PD        0.752272    0.147895    0.403519     0.005394
AU1452   AU        0.750029    0.184909    0.435182     0.007504
PD1453   PD        0.783755    0.150177    0.436358     0.005394
PD1454   PD        0.788946    0.183429    0.400937     0.005394
PD1455   PD        0.819127    0.186693    0.436433     0.005394
PD1456   PD        0.070272    0.249947    0.398831     0.005394
PD1457   PD        0.106093    0.220147    0.403799     0.005394
PD1458   PD        0.107377    0.257640    0.432268     0.005394
PD1459   PD        0.143052    0.219795    0.433885     0.005394
PD1460   PD        0.143714    0.257414    0.402300     0.005394
AU1461   AU        0.178989    0.217423    0.401151     0.007504
AU1462   AU        0.178207    0.255993    0.433116     0.007504
PD1463   PD        0.214121    0.220151    0.434268     0.005394
AU1464   AU        0.211741    0.255148    0.401201     0.007504
AU1465   AU        0.250306    0.218003    0.400863     0.007504
AU1466   AU        0.248948    0.254000    0.433606     0.007504
AU1467   AU        0.285007    0.216847    0.434116     0.007504
AU1468   AU        0.285690    0.253789    0.400041     0.007504
AU1469   AU        0.319695    0.217049    0.399757     0.007504
AU1470   AU        0.322041    0.252795    0.434494     0.007504
AU1471   AU        0.357662    0.216911    0.432758     0.007504
AU1472   AU        0.355088    0.251245    0.399883     0.007504
AU1473   AU        0.392728    0.218276    0.397703     0.007504
AU1474   AU        0.392469    0.253449    0.433644     0.007504
AU1475   AU        0.427311    0.218096    0.432633     0.007504
AU1476   AU        0.428891    0.254612    0.399598     0.007504
AU1477   AU        0.466201    0.219140    0.402445     0.007504
AU1478   AU        0.463423    0.254621    0.434363     0.007504
AU1479   AU        0.501542    0.218849    0.433495     0.007504
AU1480   AU        0.503722    0.253745    0.399886     0.007504
AU1481   AU        0.538864    0.218638    0.399421     0.007504
AU1482   AU        0.536289    0.251748    0.433048     0.007504
AU1483   AU        0.572709    0.218043    0.434701     0.007504
PD1484   PD        0.573907    0.252075    0.400310     0.005394
AU1485   AU        0.608390    0.220151    0.401044     0.007504
AU1486   AU        0.611397    0.252975    0.435903     0.007504
AU1487   AU        0.646553    0.217458    0.433186     0.007504
AU1488   AU        0.646374    0.252261    0.400862     0.007504
AU1489   AU        0.681162    0.219299    0.399824     0.007504
AU1490   AU        0.679975    0.256259    0.433576     0.007504
AU1491   AU        0.718896    0.221361    0.435788     0.007504
AU1492   AU        0.716597    0.256929    0.403481     0.007504
AU1493   AU        0.750511    0.220020    0.402153     0.007504
AU1494   AU        0.754939    0.255060    0.433279     0.007504
PD1495   PD        0.786021    0.218187    0.435700     0.005394
PD1496   PD        0.786989    0.254792    0.400157     0.005394
PD1497   PD        0.821577    0.218942    0.399573     0.005394
PD1498   PD        0.821096    0.253334    0.433647     0.005394
PD1499   PD        0.859955    0.251894    0.402517     0.005394
PD1500   PD        0.039945    0.254954    0.436651     0.005394
PD1501   PD        0.073216    0.330844    0.401074     0.005394
PD1502   PD        0.109816    0.292077    0.403003     0.005394
PD1503   PD        0.109075    0.327544    0.436648     0.005394
AU1504   AU        0.141702    0.292003    0.437973     0.007504
AU1505   AU        0.143652    0.325686    0.401647     0.007504
PD1506   PD        0.177108    0.292194    0.400567     0.005394
AU1507   AU        0.177189    0.325524    0.435309     0.007504
AU1508   AU        0.212684    0.290238    0.434561     0.007504
AU1509   AU        0.211894    0.327178    0.402746     0.007504
PD1510   PD        0.247474    0.289330    0.403766     0.005394
AU1511   AU        0.246966    0.324648    0.434195     0.007504
AU1512   AU        0.286078    0.291077    0.435031     0.007504
AU1513   AU        0.285189    0.326052    0.399452     0.007504
AU1514   AU        0.318935    0.289847    0.399630     0.007504
AU1515   AU        0.319870    0.327180    0.433007     0.007504
AU1516   AU        0.356228    0.289496    0.430759     0.007504
AU1517   AU        0.353008    0.326438    0.398940     0.007504
AU1518   AU        0.393030    0.292036    0.398909     0.007504
AU1519   AU        0.392062    0.324892    0.433685     0.007504
AU1520   AU        0.428523    0.289186    0.434100     0.007504
AU1521   AU        0.430032    0.324658    0.401183     0.007504
AU1522   AU        0.467813    0.291431    0.399663     0.007504
AU1523   AU        0.465467    0.325390    0.434254     0.007504
AU1524   AU        0.501490    0.289060    0.434042     0.007504
AU1525   AU        0.503411    0.326727    0.399296     0.007504
AU1526   AU        0.538722    0.289693    0.401468     0.007504
AU1527   AU        0.534935    0.326028    0.435802     0.007504
AU1528   AU        0.573777    0.287193    0.433536     0.007504
AU1529   AU        0.572342    0.326225    0.401821     0.007504
AU1530   AU        0.610355    0.289351    0.401450     0.007504
AU1531   AU        0.609121    0.325001    0.434426     0.007504
AU1532   AU        0.646990    0.289123    0.433663     0.007504
AU1533   AU        0.646961    0.326341    0.402265     0.007504
AU1534   AU        0.680858    0.290222    0.400000     0.007504
AU1535   AU        0.682991    0.326367    0.435817     0.007504
AU1536   AU        0.718253    0.290162    0.436486     0.007504
AU1537   AU        0.718298    0.326708    0.401826     0.007504
AU1538   AU        0.752478    0.290270    0.401622     0.007504
AU1539   AU        0.752282    0.325555    0.432851     0.007504
AU1540   AU        0.789495    0.290481    0.433532     0.007504
AU1541   AU        0.786316    0.325402    0.401461     0.007504
AU1542   AU        0.821773    0.289739    0.401501     0.007504
PD1543   PD        0.824969    0.325846    0.432241     0.005394
PD1544   PD        0.856695    0.288582    0.434509     0.005394
PD1545   PD        0.857058    0.326671    0.404211     0.005394
PD1546   PD        0.038716    0.398069    0.435039     0.005394
PD1547   PD        0.072903    0.359239    0.436702     0.005394
PD1548   PD        0.072431    0.398964    0.402424     0.005394
PD1549   PD        0.107899    0.363239    0.401718     0.005394
AU1550   AU        0.106645    0.397968    0.433916     0.007504
AU1551   AU        0.142501    0.362103    0.434346     0.007504
AU1552   AU        0.144305    0.398379    0.398000     0.007504
AU1553   AU        0.176735    0.360424    0.402505     0.007504
PD1554   PD        0.176348    0.395106    0.435295     0.005394
AU1555   AU        0.212469    0.359679    0.434486     0.007504
AU1556   AU        0.215561    0.397930    0.401363     0.007504
AU1557   AU        0.249982    0.361486    0.400417     0.007504
AU1558   AU        0.248188    0.397870    0.436763     0.007504
AU1559   AU        0.283758    0.360949    0.436002     0.007504
AU1560   AU        0.282904    0.397412    0.401577     0.007504
AU1561   AU        0.319676    0.360871    0.399922     0.007504
AU1562   AU        0.320135    0.400471    0.432882     0.007504
AU1563   AU        0.355868    0.362587    0.432522     0.007504
AU1564   AU        0.357248    0.400989    0.400424     0.007504
AU1565   AU        0.393101    0.362488    0.401575     0.007504
AU1566   AU        0.393762    0.396360    0.434287     0.007504
AU1567   AU        0.428375    0.359406    0.433960     0.007504
AU1568   AU        0.428777    0.397379    0.400809     0.007504
AU1569   AU        0.464229    0.361594    0.400772     0.007504
AU1570   AU        0.466192    0.397039    0.435848     0.007504
AU1571   AU        0.501533    0.361686    0.433428     0.007504
AU1572   AU        0.502107    0.399315    0.400763     0.007504
AU1573   AU        0.537076    0.362619    0.400358     0.007504
AU1574   AU        0.538972    0.398052    0.432235     0.007504
AU1575   AU        0.574359    0.362545    0.432524     0.007504
AU1576   AU        0.573539    0.397736    0.402320     0.007504
AU1577   AU        0.610794    0.363742    0.399698     0.007504
AU1578   AU        0.610681    0.397534    0.433826     0.007504
AU1579   AU        0.645675    0.362852    0.436404     0.007504
AU1580   AU        0.646646    0.398209    0.401900     0.007504
AU1581   AU        0.682356    0.362818    0.399979     0.007504
AU1582   AU        0.684168    0.399088    0.437983     0.007504
PD1583   PD        0.717867    0.362784    0.434410     0.005394
AU1584   AU        0.718307    0.397504    0.400717     0.007504
AU1585   AU        0.751911    0.362445    0.400464     0.007504
AU1586   AU        0.753329    0.398538    0.436848     0.007504
PD1587   PD        0.787922    0.363272    0.433508     0.005394
PD1588   PD        0.787352    0.396990    0.401051     0.005394
PD1589   PD        0.822125    0.360980    0.400227     0.005394
AU1590   AU        0.823375    0.398445    0.434989     0.007504
PD1591   PD        0.856681    0.363417    0.435090     0.005394
PD1592   PD        0.857046    0.401373    0.400527     0.005394
PD1593   PD        0.926885    0.433568    0.436554     0.005394
PD1594   PD        0.038924    0.431873    0.404326     0.005394
PD1595   PD        0.039319    0.472518    0.439646     0.005394
AU1596   AU        0.071325    0.433603    0.435705     0.007504
PD1597   PD        0.074584    0.471206    0.404239     0.005394
AU1598   AU        0.107797    0.434559    0.401377     0.007504
PD1599   PD        0.107383    0.468134    0.433448     0.005394
PD1600   PD        0.142096    0.430971    0.433489     0.005394
PD1601   PD        0.145183    0.471094    0.400112     0.005394
PD1602   PD        0.178339    0.435531    0.401384     0.005394
PD1603   PD        0.180388    0.472392    0.434847     0.005394
AU1604   AU        0.215008    0.433781    0.432789     0.007504
PD1605   PD        0.215752    0.470986    0.400768     0.005394
AU1606   AU        0.250029    0.433482    0.397640     0.007504
AU1607   AU        0.249060    0.470428    0.432940     0.007504
AU1608   AU        0.283023    0.433725    0.433627     0.007504
AU1609   AU        0.285755    0.471116    0.402152     0.007504
AU1610   AU        0.319094    0.435275    0.400586     0.007504
AU1611   AU        0.318785    0.472320    0.435577     0.007504
AU1612   AU        0.354317    0.436563    0.434380     0.007504
AU1613   AU        0.354845    0.469510    0.400613     0.007504
AU1614   AU        0.392784    0.434550    0.400850     0.007504
AU1615   AU        0.391528    0.471511    0.432781     0.007504
AU1616   AU        0.427835    0.435401    0.433170     0.007504
AU1617   AU        0.429481    0.469671    0.399739     0.007504
AU1618   AU        0.465331    0.433281    0.403461     0.007504
AU1619   AU        0.466161    0.471873    0.434119     0.007504
AU1620   AU        0.503176    0.434063    0.434378     0.007504
AU1621   AU        0.502460    0.472785    0.402802     0.007504
AU1622   AU        0.537944    0.433621    0.400546     0.007504
AU1623   AU        0.539683    0.471356    0.435638     0.007504
AU1624   AU        0.574618    0.433181    0.434090     0.007504
AU1625   AU        0.572798    0.468969    0.399030     0.007504
AU1626   AU        0.608821    0.431401    0.399820     0.007504
AU1627   AU        0.609500    0.467085    0.433901     0.007504
AU1628   AU        0.646735    0.432557    0.433909     0.007504
AU1629   AU        0.645275    0.470270    0.402476     0.007504
AU1630   AU        0.683290    0.435174    0.400308     0.007504
AU1631   AU        0.682250    0.472210    0.433368     0.007504
AU1632   AU        0.719184    0.434718    0.436377     0.007504
AU1633   AU        0.717704    0.469876    0.401199     0.007504
AU1634   AU        0.752282    0.433228    0.400772     0.007504
AU1635   AU        0.753377    0.468983    0.434909     0.007504
AU1636   AU        0.788562    0.433901    0.433344     0.007504
AU1637   AU        0.786583    0.469914    0.401683     0.007504
AU1638   AU        0.821199    0.435372    0.400366     0.007504
AU1639   AU        0.821222    0.469680    0.433288     0.007504
PD1640   PD        0.858345    0.433641    0.434625     0.005394
PD1641   PD        0.858727    0.472510    0.402204     0.005394
PD1642   PD        0.896155    0.438333    0.403841     0.005394
PD1643   PD        0.890652    0.471528    0.436831     0.005394
PD1644   PD        0.074661    0.505284    0.437395     0.005394
PD1645   PD        0.075247    0.545928    0.400364     0.005394
PD1646   PD        0.106524    0.506914    0.399459     0.005394
PD1647   PD        0.103219    0.544356    0.435672     0.005394
PD1648   PD        0.140582    0.505960    0.433540     0.005394
PD1649   PD        0.141338    0.540909    0.399443     0.005394
PD1650   PD        0.180582    0.509099    0.398991     0.005394
PD1651   PD        0.180897    0.543089    0.434199     0.005394
AU1652   AU        0.213434    0.505903    0.434373     0.007504
AU1653   AU        0.212676    0.543615    0.399951     0.007504
AU1654   AU        0.248660    0.508313    0.398821     0.007504
AU1655   AU        0.247966    0.544068    0.433968     0.007504
AU1656   AU        0.283843    0.506281    0.435006     0.007504
AU1657   AU        0.286913    0.540847    0.401933     0.007504
AU1658   AU        0.321108    0.507132    0.403026     0.007504
AU1659   AU        0.321857    0.544387    0.434923     0.007504
AU1660   AU        0.357439    0.508188    0.435135     0.007504
AU1661   AU        0.356132    0.541862    0.400853     0.007504
AU1662   AU        0.392011    0.506124    0.398896     0.007504
AU1663   AU        0.391188    0.543994    0.434190     0.007504
AU1664   AU        0.427739    0.506062    0.434044     0.007504
AU1665   AU        0.427569    0.541740    0.402749     0.007504
AU1666   AU        0.463529    0.507831    0.402457     0.007504
AU1667   AU        0.463508    0.544298    0.436236     0.007504
AU1668   AU        0.500510    0.507002    0.434927     0.007504
AU1669   AU        0.501599    0.542151    0.402309     0.007504
AU1670   AU        0.537067    0.507117    0.400059     0.007504
AU1671   AU        0.536060    0.542596    0.434375     0.007504
AU1672   AU        0.574636    0.504697    0.432376     0.007504
AU1673   AU        0.575419    0.541503    0.402040     0.007504
AU1674   AU        0.610846    0.506993    0.402094     0.007504
AU1675   AU        0.610095    0.541105    0.434018     0.007504
AU1676   AU        0.646067    0.506433    0.434391     0.007504
AU1677   AU        0.648013    0.542256    0.401263     0.007504
AU1678   AU        0.680983    0.505682    0.400764     0.007504
AU1679   AU        0.682565    0.541964    0.435407     0.007504
AU1680   AU        0.718816    0.506192    0.435304     0.007504
PD1681   PD        0.718741    0.542979    0.400318     0.005394
AU1682   AU        0.753870    0.504753    0.401304     0.007504
AU1683   AU        0.752251    0.542060    0.434419     0.007504
PD1684   PD        0.788366    0.506711    0.433007     0.005394
AU1685   AU        0.788006    0.540400    0.401376     0.007504
PD1686   PD        0.821826    0.506958    0.400883     0.005394
AU1687   AU        0.823857    0.541575    0.432919     0.007504
AU1688   AU        0.855075    0.505809    0.434236     0.007504
PD1689   PD        0.856895    0.540509    0.401654     0.005394
PD1690   PD        0.073395    0.580801    0.430743     0.005394
PD1691   PD        0.074162    0.654145    0.370040     0.005394
PD1692   PD        0.110934    0.576943    0.401958     0.005394
PD1693   PD        0.110111    0.612607    0.434844     0.005394
PD1694   PD        0.144789    0.581384    0.435322     0.005394
AU1695   AU        0.143850    0.615533    0.400040     0.007504
AU1696   AU        0.179322    0.579142    0.402102     0.007504
AU1697   AU        0.177603    0.615898    0.434569     0.007504
AU1698   AU        0.214082    0.580143    0.434294     0.007504
AU1699   AU        0.213252    0.614365    0.401921     0.007504
AU1700   AU        0.248372    0.579722    0.400687     0.007504
AU1701   AU        0.250011    0.615607    0.434572     0.007504
AU1702   AU        0.283922    0.578682    0.433352     0.007504
AU1703   AU        0.283030    0.617178    0.402071     0.007504
AU1704   AU        0.319501    0.578624    0.402148     0.007504
PD1705   PD        0.320737    0.614644    0.434137     0.005394
AU1706   AU        0.356209    0.578568    0.433576     0.007504
AU1707   AU        0.355674    0.615131    0.399237     0.007504
AU1708   AU        0.392903    0.578278    0.399698     0.007504
AU1709   AU        0.391965    0.612628    0.435143     0.007504
AU1710   AU        0.429783    0.579594    0.433732     0.007504
AU1711   AU        0.430354    0.616250    0.400836     0.007504
AU1712   AU        0.465760    0.578167    0.399950     0.007504
AU1713   AU        0.467017    0.614153    0.432651     0.007504
AU1714   AU        0.503035    0.579524    0.436096     0.007504
AU1715   AU        0.502762    0.614354    0.400797     0.007504
AU1716   AU        0.538566    0.579038    0.400587     0.007504
AU1717   AU        0.536511    0.616433    0.433787     0.007504
AU1718   AU        0.573608    0.579163    0.433564     0.007504
AU1719   AU        0.576734    0.614325    0.401624     0.007504
AU1720   AU        0.611203    0.577419    0.400478     0.007504
AU1721   AU        0.609219    0.614213    0.435041     0.007504
AU1722   AU        0.644191    0.576404    0.433205     0.007504
AU1723   AU        0.646347    0.613837    0.400893     0.007504
AU1724   AU        0.681491    0.578266    0.401306     0.007504
AU1725   AU        0.679180    0.614977    0.436008     0.007504
PD1726   PD        0.714786    0.578208    0.437105     0.005394
AU1727   AU        0.715610    0.614683    0.403188     0.007504
AU1728   AU        0.753587    0.575705    0.401000     0.007504
PD1729   PD        0.752688    0.614793    0.433408     0.005394
AU1730   AU        0.789091    0.575770    0.432986     0.007504
PD1731   PD        0.787793    0.613589    0.401184     0.005394
AU1732   AU        0.822345    0.575519    0.401081     0.007504
PD1733   PD        0.819917    0.611404    0.434037     0.005394
PD1734   PD        0.856932    0.576716    0.432499     0.005394
PD1735   PD        0.858508    0.613395    0.403620     0.005394
PD1736   PD        0.107527    0.647192    0.402169     0.005394
PD1737   PD        0.067831    0.681683    0.401003     0.005394
PD1738   PD        0.144897    0.652022    0.434995     0.005394
PD1739   PD        0.144492    0.684410    0.399771     0.005394
AU1740   AU        0.178823    0.649678    0.401011     0.007504
PD1741   PD        0.179660    0.686666    0.431138     0.005394
AU1742   AU        0.211896    0.649667    0.433547     0.007504
AU1743   AU        0.213404    0.686396    0.400081     0.007504
AU1744   AU        0.247597    0.649914    0.401390     0.007504
AU1745   AU        0.248570    0.686675    0.434812     0.007504
AU1746   AU        0.285029    0.648425    0.436029     0.007504
AU1747   AU        0.283904    0.683842    0.399971     0.007504
AU1748   AU        0.318983    0.650439    0.402219     0.007504
PD1749   PD        0.322764    0.688075    0.434691     0.005394
AU1750   AU        0.358916    0.649339    0.432931     0.007504
AU1751   AU        0.357636    0.684653    0.399662     0.007504
PD1752   PD        0.395143    0.651507    0.400954     0.005394
AU1753   AU        0.394501    0.685284    0.436715     0.007504
AU1754   AU        0.429267    0.651233    0.433920     0.007504
AU1755   AU        0.428593    0.686125    0.398955     0.007504
AU1756   AU        0.465657    0.649831    0.402990     0.007504
AU1757   AU        0.464591    0.686671    0.433581     0.007504
AU1758   AU        0.501291    0.651934    0.434976     0.007504
AU1759   AU        0.500920    0.686653    0.399963     0.007504
AU1760   AU        0.537022    0.652314    0.400054     0.007504
AU1761   AU        0.538022    0.688703    0.434666     0.007504
AU1762   AU        0.573003    0.648806    0.434291     0.007504
AU1763   AU        0.572503    0.685157    0.400801     0.007504
AU1764   AU        0.611345    0.650715    0.400754     0.007504
PD1765   PD        0.608759    0.685517    0.434358     0.005394
AU1766   AU        0.644720    0.648602    0.435745     0.007504
PD1767   PD        0.645978    0.685564    0.400936     0.005394
AU1768   AU        0.680796    0.650654    0.400818     0.007504
AU1769   AU        0.681090    0.686305    0.434103     0.007504
PD1770   PD        0.720079    0.651329    0.435915     0.005394
PD1771   PD        0.714520    0.685387    0.400751     0.005394
PD1772   PD        0.749684    0.650237    0.400087     0.005394
PD1773   PD        0.751341    0.683266    0.438461     0.005394
PD1774   PD        0.787124    0.647527    0.436554     0.005394
PD1775   PD        0.788118    0.683029    0.399015     0.005394
PD1776   PD        0.824505    0.647800    0.403178     0.005394
PD1777   PD        0.822060    0.686522    0.432149     0.005394
PD1778   PD        0.141802    0.722426    0.432654     0.005394
PD1779   PD        0.181327    0.721363    0.400976     0.005394
PD1780   PD        0.181026    0.755897    0.435244     0.005394
PD1781   PD        0.213810    0.722051    0.434367     0.005394
PD1782   PD        0.212803    0.754465    0.401725     0.005394
PD1783   PD        0.249762    0.719286    0.402445     0.005394
PD1784   PD        0.249691    0.755378    0.432867     0.005394
PD1785   PD        0.283452    0.721586    0.434121     0.005394
AU1786   AU        0.286221    0.756698    0.400837     0.007504
PD1787   PD        0.318501    0.721777    0.402342     0.005394
PD1788   PD        0.323339    0.756495    0.433488     0.005394
PD1789   PD        0.357566    0.721049    0.433111     0.005394
AU1790   AU        0.357779    0.757748    0.403720     0.007504
PD1791   PD        0.396133    0.720173    0.401216     0.005394
AU1792   AU        0.393627    0.756974    0.437096     0.007504
AU1793   AU        0.428707    0.720367    0.436569     0.007504
PD1794   PD        0.430620    0.755683    0.404041     0.005394
PD1795   PD        0.465450    0.722550    0.401591     0.005394
PD1796   PD        0.466385    0.754503    0.434452     0.005394
AU1797   AU        0.502507    0.721295    0.436264     0.007504
AU1798   AU        0.503728    0.755829    0.401258     0.007504
AU1799   AU        0.538528    0.720378    0.399874     0.007504
AU1800   AU        0.538823    0.755623    0.433069     0.007504
AU1801   AU        0.575603    0.722657    0.433303     0.007504
PD1802   PD        0.576014    0.754569    0.398414     0.005394
AU1803   AU        0.610463    0.719325    0.399261     0.007504
AU1804   AU        0.611340    0.756744    0.434486     0.007504
PD1805   PD        0.645015    0.721751    0.432794     0.005394
AU1806   AU        0.645437    0.756584    0.401481     0.007504
PD1807   PD        0.678394    0.720618    0.399139     0.005394
PD1808   PD        0.681515    0.755089    0.434775     0.005394
PD1809   PD        0.718957    0.719669    0.436976     0.005394
PD1810   PD        0.712961    0.754045    0.402072     0.005394
PD1811   PD        0.748145    0.719391    0.400470     0.005394
PD1812   PD        0.748939    0.749790    0.435035     0.005394
PD1813   PD        0.785422    0.715913    0.433771     0.005394
PD1814   PD        0.216462    0.789199    0.435876     0.005394
PD1815   PD        0.251592    0.792165    0.401529     0.005394
PD1816   PD        0.288151    0.791960    0.432319     0.005394
PD1817   PD        0.278600    0.903261    0.402063     0.005394
PD1818   PD        0.320657    0.791993    0.401232     0.005394
PD1819   PD        0.321211    0.830246    0.441740     0.005394
PD1820   PD        0.359269    0.793930    0.435750     0.005394
PD1821   PD        0.360655    0.824242    0.402167     0.005394
PD1822   PD        0.393858    0.791777    0.402218     0.005394
PD1823   PD        0.396670    0.825054    0.434521     0.005394
AU1824   AU        0.428817    0.790721    0.433801     0.007504
PD1825   PD        0.430156    0.828599    0.400735     0.005394
PD1826   PD        0.466020    0.790128    0.400707     0.005394
AU1827   AU        0.465388    0.824889    0.434238     0.007504
PD1828   PD        0.500971    0.789906    0.435141     0.005394
PD1829   PD        0.502800    0.827003    0.400691     0.005394
PD1830   PD        0.537267    0.792352    0.402127     0.005394
PD1831   PD        0.537541    0.825901    0.435581     0.005394
AU1832   AU        0.577062    0.790369    0.433967     0.007504
PD1833   PD        0.575286    0.826608    0.400939     0.005394
PD1834   PD        0.614454    0.789630    0.399756     0.005394
PD1835   PD        0.611973    0.824984    0.431856     0.005394
PD1836   PD        0.647147    0.790342    0.433934     0.005394
PD1837   PD        0.649148    0.827180    0.400911     0.005394
PD1838   PD        0.679143    0.788658    0.400954     0.005394
PD1839   PD        0.679828    0.827359    0.436357     0.005394
PD1840   PD        0.430209    0.861163    0.435590     0.005394
PD1841   PD        0.465215    0.860012    0.399870     0.005394
PD1842   PD        0.498750    0.860789    0.437062     0.005394
PD1843   PD        0.286844    0.045157    0.470602     0.005394
PD1844   PD        0.324327    0.041901    0.500990     0.005394
PD1845   PD        0.358408    0.045316    0.467910     0.005394
PD1846   PD        0.391971    0.006955    0.468762     0.005394
PD1847   PD        0.394743    0.045537    0.500167     0.005394
PD1848   PD        0.425997    0.009440    0.502544     0.005394
AU1849   AU        0.428445    0.042547    0.468164     0.007504
PD1850   PD        0.464343    0.009063    0.471729     0.005394
PD1851   PD        0.464783    0.046429    0.502493     0.005394
PD1852   PD        0.502102    0.011732    0.501861     0.005394
PD1853   PD        0.502052    0.044370    0.467905     0.005394
PD1854   PD        0.535568    0.008621    0.473706     0.005394
PD1855   PD        0.538114    0.044468    0.502824     0.005394
PD1856   PD        0.568700    0.044268    0.466746     0.005394
PD1857   PD        0.603589    0.041860    0.501176     0.005394
PD1858   PD        0.643100    0.044101    0.469083     0.005394
PD1859   PD        0.179625    0.114563    0.500196     0.005394
PD1860   PD        0.217217    0.080566    0.502414     0.005394
PD1861   PD        0.215480    0.111003    0.466907     0.005394
PD1862   PD        0.250880    0.078226    0.468632     0.005394
PD1863   PD        0.251573    0.113023    0.501756     0.005394
AU1864   AU        0.287120    0.079595    0.501026     0.007504
AU1865   AU        0.286846    0.111709    0.468794     0.007504
AU1866   AU        0.321104    0.079453    0.466534     0.007504
AU1867   AU        0.321406    0.113761    0.502322     0.007504
AU1868   AU        0.355716    0.078869    0.498805     0.007504
AU1869   AU        0.356728    0.112573    0.468492     0.007504
PD1870   PD        0.393793    0.079212    0.467561     0.005394
AU1871   AU        0.392432    0.113621    0.502043     0.007504
PD1872   PD        0.430680    0.080255    0.497967     0.005394
PD1873   PD        0.430096    0.113339    0.467883     0.005394
PD1874   PD        0.466510    0.078259    0.468141     0.005394
PD1875   PD        0.465504    0.110665    0.501081     0.005394
AU1876   AU        0.501753    0.080285    0.500393     0.007504
AU1877   AU        0.501356    0.114730    0.467228     0.007504
AU1878   AU        0.535443    0.080257    0.467828     0.007504
AU1879   AU        0.536499    0.115519    0.501680     0.007504
PD1880   PD        0.569288    0.078278    0.501886     0.005394
AU1881   AU        0.569995    0.113616    0.468519     0.007504
PD1882   PD        0.606027    0.077582    0.471042     0.005394
PD1883   PD        0.607221    0.112458    0.503520     0.005394
PD1884   PD        0.641992    0.075837    0.501195     0.005394
PD1885   PD        0.644047    0.111000    0.468826     0.005394
PD1886   PD        0.678883    0.075648    0.464783     0.005394
AU1887   AU        0.678474    0.114039    0.499585     0.007504
PD1888   PD        0.713144    0.074243    0.499552     0.005394
AU1889   AU        0.714900    0.112001    0.468334     0.007504
PD1890   PD        0.750339    0.116873    0.500765     0.005394
PD1891   PD        0.079200    0.136128    0.516284     0.005394
PD1892   PD        0.148517    0.151053    0.500879     0.005394
PD1893   PD        0.143753    0.186396    0.470060     0.005394
PD1894   PD        0.181293    0.148323    0.469004     0.005394
PD1895   PD        0.177720    0.180554    0.501217     0.005394
PD1896   PD        0.214555    0.150570    0.500678     0.005394
PD1897   PD        0.211307    0.185898    0.467564     0.005394
PD1898   PD        0.251334    0.144203    0.466237     0.005394
PD1899   PD        0.250239    0.183828    0.500456     0.005394
AU1900   AU        0.286516    0.148238    0.501122     0.007504
AU1901   AU        0.284597    0.183348    0.469216     0.007504
AU1902   AU        0.320644    0.146149    0.467987     0.007504
AU1903   AU        0.320980    0.184332    0.500485     0.007504
AU1904   AU        0.355387    0.146920    0.501867     0.007504
AU1905   AU        0.355568    0.181690    0.467743     0.007504
AU1906   AU        0.390874    0.148763    0.468269     0.007504
AU1907   AU        0.389124    0.183503    0.501087     0.007504
PD1908   PD        0.429398    0.149253    0.503921     0.005394
AU1909   AU        0.425567    0.184884    0.468970     0.007504
PD1910   PD        0.464492    0.147629    0.466133     0.005394
AU1911   AU        0.464304    0.182680    0.501274     0.007504
AU1912   AU        0.500393    0.147811    0.502885     0.007504
PD1913   PD        0.501410    0.182703    0.467660     0.005394
AU1914   AU        0.534610    0.148950    0.467110     0.007504
AU1915   AU        0.536014    0.181031    0.502332     0.007504
AU1916   AU        0.570702    0.148957    0.501800     0.007504
AU1917   AU        0.574841    0.184193    0.467655     0.007504
PD1918   PD        0.607524    0.145128    0.467197     0.005394
PD1919   PD        0.609490    0.184926    0.502030     0.005394
PD1920   PD        0.644525    0.148384    0.501208     0.005394
PD1921   PD        0.644150    0.181994    0.467516     0.005394
PD1922   PD        0.679878    0.148885    0.468841     0.005394
AU1923   AU        0.680127    0.183367    0.503881     0.007504
AU1924   AU        0.716121    0.148667    0.500832     0.007504
PD1925   PD        0.717553    0.182438    0.469880     0.005394
PD1926   PD        0.750516    0.148679    0.468448     0.005394
PD1927   PD        0.750380    0.185504    0.502338     0.005394
PD1928   PD        0.785540    0.151843    0.500908     0.005394
PD1929   PD        0.782869    0.183733    0.468580     0.005394
PD1930   PD        0.823521    0.186836    0.504680     0.005394
PD1931   PD        0.076617    0.255644    0.470119     0.005394
PD1932   PD        0.109024    0.215905    0.465598     0.005394
PD1933   PD        0.109838    0.257403    0.503544     0.005394
PD1934   PD        0.145915    0.181669    0.537300     0.005394
AU1935   AU        0.141699    0.255940    0.468623     0.007504
AU1936   AU        0.178376    0.220505    0.466157     0.007504
AU1937   AU        0.179172    0.255831    0.500178     0.007504
PD1938   PD        0.216442    0.220875    0.500990     0.005394
AU1939   AU        0.214721    0.254310    0.468895     0.007504
PD1940   PD        0.249712    0.219069    0.466983     0.005394
PD1941   PD        0.249490    0.255840    0.501753     0.005394
AU1942   AU        0.284266    0.219695    0.500876     0.007504
AU1943   AU        0.284896    0.254939    0.467031     0.007504
AU1944   AU        0.320423    0.218517    0.466286     0.007504
AU1945   AU        0.320271    0.254730    0.500031     0.007504
AU1946   AU        0.356203    0.218316    0.499266     0.007504
AU1947   AU        0.357545    0.253534    0.467261     0.007504
AU1948   AU        0.392846    0.218282    0.466997     0.007504
AU1949   AU        0.393853    0.255661    0.500463     0.007504
AU1950   AU        0.427797    0.219093    0.501046     0.007504
AU1951   AU        0.426411    0.254592    0.467304     0.007504
AU1952   AU        0.465075    0.217430    0.467026     0.007504
AU1953   AU        0.463580    0.253185    0.502195     0.007504
AU1954   AU        0.500667    0.217330    0.503559     0.007504
AU1955   AU        0.498974    0.253075    0.466963     0.007504
AU1956   AU        0.536527    0.215843    0.466763     0.007504
AU1957   AU        0.537992    0.253082    0.501248     0.007504
AU1958   AU        0.572094    0.216106    0.502098     0.007504
AU1959   AU        0.573317    0.253348    0.467125     0.007504
AU1960   AU        0.612842    0.220183    0.467054     0.007504
AU1961   AU        0.609354    0.253957    0.500453     0.007504
AU1962   AU        0.646654    0.220101    0.502996     0.007504
AU1963   AU        0.646421    0.253965    0.469286     0.007504
PD1964   PD        0.682142    0.219795    0.471123     0.005394
AU1965   AU        0.681915    0.255370    0.501788     0.007504
AU1966   AU        0.714150    0.218433    0.501572     0.007504
AU1967   AU        0.716064    0.254910    0.469030     0.007504
AU1968   AU        0.752314    0.219621    0.468638     0.007504
AU1969   AU        0.751363    0.254748    0.502168     0.007504
AU1970   AU        0.786921    0.219120    0.501592     0.007504
AU1971   AU        0.786014    0.255460    0.468631     0.007504
PD1972   PD        0.822623    0.222020    0.468882     0.005394
PD1973   PD        0.820181    0.256114    0.502160     0.005394
PD1974   PD        0.855278    0.254056    0.465027     0.005394
PD1975   PD        0.073607    0.291935    0.502118     0.005394
PD1976   PD        0.070756    0.330721    0.470340     0.005394
PD1977   PD        0.108073    0.291758    0.470356     0.005394
PD1978   PD        0.107974    0.328256    0.501302     0.005394
AU1979   AU        0.142351    0.290777    0.501574     0.007504
AU1980   AU        0.142477    0.327898    0.470964     0.007504
AU1981   AU        0.179330    0.290220    0.468462     0.007504
AU1982   AU        0.177908    0.325368    0.501899     0.007504
AU1983   AU        0.214845    0.289314    0.503135     0.007504
AU1984   AU        0.213781    0.325261    0.469566     0.007504
AU1985   AU        0.247944    0.291218    0.466246     0.007504
AU1986   AU        0.247764    0.325689    0.503588     0.007504
AU1987   AU        0.281974    0.290829    0.499244     0.007504
AU1988   AU        0.283574    0.325349    0.469616     0.007504
AU1989   AU        0.320315    0.289333    0.466940     0.007504
AU1990   AU        0.320052    0.326942    0.499507     0.007504
AU1991   AU        0.355694    0.289482    0.502025     0.007504
AU1992   AU        0.354212    0.326489    0.467538     0.007504
AU1993   AU        0.391189    0.288729    0.466479     0.007504
AU1994   AU        0.393526    0.324432    0.500902     0.007504
AU1995   AU        0.429638    0.288491    0.501834     0.007504
AU1996   AU        0.428790    0.325817    0.465303     0.007504
AU1997   AU        0.464301    0.289502    0.467999     0.007504
AU1998   AU        0.464988    0.325464    0.500743     0.007504
AU1999   AU        0.500688    0.288624    0.501603     0.007504
AU2000   AU        0.500954    0.324881    0.467103     0.007504
AU2001   AU        0.534400    0.287937    0.469047     0.007504
AU2002   AU        0.537297    0.326484    0.502438     0.007504
AU2003   AU        0.573654    0.290163    0.499751     0.007504
AU2004   AU        0.572084    0.324367    0.468768     0.007504
AU2005   AU        0.609625    0.289868    0.466675     0.007504
AU2006   AU        0.609759    0.326324    0.499662     0.007504
AU2007   AU        0.646201    0.291228    0.500329     0.007504
AU2008   AU        0.646903    0.326542    0.468411     0.007504
AU2009   AU        0.683152    0.292619    0.469156     0.007504
AU2010   AU        0.682611    0.328418    0.501866     0.007504
AU2011   AU        0.719536    0.289985    0.501561     0.007504
AU2012   AU        0.718720    0.326538    0.469320     0.007504
AU2013   AU        0.752622    0.288927    0.468276     0.007504
AU2014   AU        0.753015    0.325125    0.501438     0.007504
AU2015   AU        0.789257    0.289666    0.500016     0.007504
AU2016   AU        0.786199    0.325837    0.465717     0.007504
PD2017   PD        0.821635    0.288838    0.466161     0.005394
PD2018   PD        0.821163    0.326531    0.503324     0.005394
PD2019   PD        0.859398    0.288135    0.497334     0.005394
PD2020   PD        0.856185    0.324050    0.467908     0.005394
PD2021   PD        0.000714    0.364356    0.433840     0.005394
PD2022   PD        0.039910    0.398766    0.501075     0.005394
PD2023   PD        0.072359    0.364215    0.502221     0.005394
PD2024   PD        0.073548    0.399731    0.469278     0.005394
AU2025   AU        0.110151    0.363751    0.467765     0.007504
AU2026   AU        0.110242    0.398912    0.501453     0.007504
AU2027   AU        0.144170    0.361836    0.503270     0.007504
AU2028   AU        0.142951    0.398382    0.468915     0.007504
AU2029   AU        0.176887    0.361674    0.468406     0.007504
AU2030   AU        0.176233    0.398797    0.501786     0.007504
AU2031   AU        0.212728    0.361247    0.504096     0.007504
AU2032   AU        0.212270    0.397266    0.470742     0.007504
AU2033   AU        0.248405    0.361391    0.469615     0.007504
AU2034   AU        0.248874    0.400265    0.501897     0.007504
AU2035   AU        0.285303    0.361358    0.503835     0.007504
AU2036   AU        0.284024    0.397886    0.469214     0.007504
AU2037   AU        0.318732    0.361724    0.467169     0.007504
AU2038   AU        0.319135    0.395861    0.500611     0.007504
AU2039   AU        0.356124    0.362451    0.499878     0.007504
AU2040   AU        0.355544    0.398079    0.465815     0.007504
AU2041   AU        0.390403    0.362448    0.466752     0.007504
AU2042   AU        0.391414    0.400035    0.500472     0.007504
AU2043   AU        0.427133    0.361473    0.502185     0.007504
AU2044   AU        0.427045    0.398008    0.468056     0.007504
AU2045   AU        0.467765    0.361532    0.468063     0.007504
AU2046   AU        0.464914    0.396795    0.499801     0.007504
AU2047   AU        0.501611    0.362863    0.502333     0.007504
AU2048   AU        0.501144    0.400739    0.467693     0.007504
AU2049   AU        0.536483    0.364198    0.468834     0.007504
AU2050   AU        0.536896    0.399437    0.500058     0.007504
AU2051   AU        0.573247    0.362980    0.500442     0.007504
AU2052   AU        0.574265    0.398492    0.465835     0.007504
AU2053   AU        0.609859    0.361670    0.467266     0.007504
AU2054   AU        0.610398    0.397115    0.501181     0.007504
AU2055   AU        0.644623    0.362315    0.500727     0.007504
AU2056   AU        0.643844    0.398763    0.469270     0.007504
AU2057   AU        0.681143    0.362748    0.468675     0.007504
AU2058   AU        0.680857    0.399637    0.500795     0.007504
AU2059   AU        0.717314    0.361762    0.502712     0.007504
AU2060   AU        0.718111    0.398694    0.470453     0.007504
AU2061   AU        0.755516    0.362184    0.468956     0.007504
AU2062   AU        0.755707    0.399356    0.500239     0.007504
PD2063   PD        0.788525    0.361285    0.501033     0.005394
AU2064   AU        0.788982    0.400063    0.468006     0.007504
PD2065   PD        0.821692    0.362734    0.468413     0.005394
AU2066   AU        0.822202    0.400019    0.501245     0.007504
PD2067   PD        0.857671    0.366945    0.504322     0.005394
PD2068   PD        0.857117    0.400368    0.469874     0.005394
PD2069   PD        0.892018    0.399081    0.435287     0.005394
PD2070   PD        0.892654    0.400546    0.506196     0.005394
AU2071   AU        0.039464    0.436700    0.469547     0.007504
PD2072   PD        0.039492    0.469512    0.503016     0.005394
PD2073   PD        0.075053    0.432275    0.502465     0.005394
PD2074   PD        0.075682    0.467896    0.468690     0.005394
PD2075   PD        0.110274    0.433521    0.467853     0.005394
AU2076   AU        0.107838    0.467911    0.502625     0.007504
AU2077   AU        0.145430    0.434485    0.504086     0.007504
PD2078   PD        0.144584    0.467980    0.467791     0.005394
PD2079   PD        0.178529    0.434579    0.467682     0.005394
AU2080   AU        0.177292    0.470432    0.504201     0.007504
AU2081   AU        0.212918    0.436252    0.501796     0.007504
PD2082   PD        0.212308    0.471389    0.467811     0.005394
AU2083   AU        0.248446    0.433812    0.468540     0.007504
AU2084   AU        0.248259    0.469980    0.504343     0.007504
AU2085   AU        0.283861    0.434799    0.502482     0.007504
AU2086   AU        0.282920    0.471158    0.468038     0.007504
AU2087   AU        0.318421    0.433314    0.467363     0.007504
AU2088   AU        0.322353    0.469418    0.502622     0.007504
AU2089   AU        0.356824    0.434412    0.500328     0.007504
AU2090   AU        0.358882    0.470832    0.467156     0.007504
AU2091   AU        0.391958    0.434786    0.467998     0.007504
AU2092   AU        0.393718    0.468862    0.502791     0.007504
AU2093   AU        0.428935    0.432486    0.502000     0.007504
AU2094   AU        0.426315    0.470825    0.465779     0.007504
AU2095   AU        0.465414    0.434075    0.467023     0.007504
AU2096   AU        0.463546    0.470588    0.500657     0.007504
AU2097   AU        0.502764    0.434926    0.501871     0.007504
AU2098   AU        0.501705    0.471780    0.467331     0.007504
AU2099   AU        0.540130    0.432799    0.468435     0.007504
AU2100   AU        0.537685    0.470771    0.502993     0.007504
AU2101   AU        0.575208    0.435219    0.502476     0.007504
AU2102   AU        0.574156    0.470834    0.466415     0.007504
AU2103   AU        0.610770    0.433556    0.466832     0.007504
AU2104   AU        0.610576    0.468417    0.502429     0.007504
AU2105   AU        0.648362    0.433919    0.502475     0.007504
AU2106   AU        0.646909    0.471655    0.467759     0.007504
AU2107   AU        0.683183    0.435088    0.468715     0.007504
AU2108   AU        0.683097    0.470836    0.500994     0.007504
AU2109   AU        0.719410    0.434754    0.501632     0.007504
AU2110   AU        0.717984    0.470385    0.466631     0.007504
AU2111   AU        0.754689    0.435379    0.469314     0.007504
AU2112   AU        0.753609    0.470403    0.502471     0.007504
AU2113   AU        0.788686    0.436675    0.501926     0.007504
AU2114   AU        0.788222    0.469325    0.467075     0.007504
AU2115   AU        0.823477    0.435902    0.468128     0.007504
PD2116   PD        0.823381    0.471774    0.501780     0.005394
PD2117   PD        0.856354    0.434067    0.503645     0.005394
AU2118   AU        0.856180    0.471638    0.467927     0.007504
PD2119   PD        0.892592    0.433492    0.468761     0.005394
PD2120   PD        0.890428    0.472305    0.502505     0.005394
PD2121   PD        0.036788    0.507952    0.470529     0.005394
PD2122   PD        0.073466    0.505517    0.503397     0.005394
PD2123   PD        0.075053    0.538956    0.471407     0.005394
PD2124   PD        0.106917    0.503262    0.466892     0.005394
PD2125   PD        0.107760    0.541323    0.503301     0.005394
AU2126   AU        0.141145    0.503446    0.502520     0.007504
PD2127   PD        0.144413    0.542493    0.466146     0.005394
PD2128   PD        0.178587    0.507969    0.470205     0.005394
PD2129   PD        0.176029    0.540577    0.504808     0.005394
AU2130   AU        0.214051    0.507949    0.504192     0.007504
AU2131   AU        0.212582    0.543399    0.469105     0.007504
AU2132   AU        0.245885    0.505349    0.468890     0.007504
AU2133   AU        0.249803    0.542507    0.500506     0.007504
AU2134   AU        0.283217    0.506086    0.500890     0.007504
AU2135   AU        0.283306    0.543871    0.466570     0.007504
AU2136   AU        0.320680    0.507493    0.466979     0.007504
AU2137   AU        0.319208    0.542174    0.501446     0.007504
AU2138   AU        0.357895    0.505361    0.500620     0.007504
AU2139   AU        0.357328    0.542590    0.467453     0.007504
AU2140   AU        0.393321    0.506062    0.469250     0.007504
AU2141   AU        0.391486    0.541990    0.501606     0.007504
AU2142   AU        0.427057    0.505345    0.502481     0.007504
AU2143   AU        0.428497    0.541753    0.470333     0.007504
AU2144   AU        0.464596    0.506323    0.467209     0.007504
AU2145   AU        0.467438    0.541122    0.499589     0.007504
AU2146   AU        0.500766    0.503558    0.503975     0.007504
AU2147   AU        0.499821    0.541897    0.465692     0.007504
AU2148   AU        0.537967    0.504508    0.468648     0.007504
AU2149   AU        0.535951    0.540521    0.500851     0.007504
AU2150   AU        0.572827    0.506744    0.502325     0.007504
AU2151   AU        0.573345    0.540627    0.466320     0.007504
AU2152   AU        0.611985    0.506139    0.468409     0.007504
AU2153   AU        0.611121    0.541931    0.500653     0.007504
AU2154   AU        0.646170    0.504097    0.501812     0.007504
AU2155   AU        0.645765    0.541129    0.467468     0.007504
AU2156   AU        0.683471    0.506465    0.467576     0.007504
AU2157   AU        0.681163    0.541436    0.501844     0.007504
AU2158   AU        0.717779    0.506488    0.500408     0.007504
AU2159   AU        0.717935    0.541354    0.468537     0.007504
AU2160   AU        0.753389    0.505006    0.469121     0.007504
AU2161   AU        0.753969    0.541038    0.502421     0.007504
AU2162   AU        0.788567    0.502938    0.502344     0.007504
AU2163   AU        0.789902    0.543361    0.466619     0.007504
AU2164   AU        0.821602    0.505715    0.467652     0.007504
PD2165   PD        0.820773    0.541727    0.498956     0.005394
PD2166   PD        0.853711    0.505488    0.500865     0.005394
AU2167   AU        0.855748    0.540487    0.466745     0.007504
PD2168   PD        0.891778    0.506837    0.467353     0.005394
PD2169   PD        0.036419    0.581542    0.535895     0.005394
PD2170   PD        0.073354    0.611251    0.465419     0.005394
PD2171   PD        0.108313    0.579633    0.470318     0.005394
AU2172   AU        0.108074    0.615453    0.500255     0.007504
PD2173   PD        0.142353    0.581231    0.501072     0.005394
AU2174   AU        0.145785    0.615296    0.468662     0.007504
PD2175   PD        0.180491    0.579068    0.468190     0.005394
AU2176   AU        0.179041    0.616515    0.501846     0.007504
PD2177   PD        0.213761    0.581353    0.499885     0.005394
AU2178   AU        0.214361    0.616411    0.466598     0.007504
AU2179   AU        0.249518    0.580094    0.466261     0.007504
AU2180   AU        0.249359    0.615053    0.501015     0.007504
AU2181   AU        0.283064    0.577373    0.501253     0.007504
AU2182   AU        0.284292    0.613334    0.467579     0.007504
AU2183   AU        0.320006    0.580340    0.467091     0.007504
AU2184   AU        0.322692    0.613615    0.501154     0.007504
AU2185   AU        0.357409    0.578252    0.500736     0.007504
AU2186   AU        0.356101    0.613659    0.466607     0.007504
AU2187   AU        0.392107    0.577982    0.467866     0.007504
AU2188   AU        0.393112    0.614118    0.498652     0.007504
AU2189   AU        0.427273    0.579287    0.500283     0.007504
AU2190   AU        0.427786    0.617069    0.465293     0.007504
AU2191   AU        0.465666    0.579938    0.469161     0.007504
AU2192   AU        0.466382    0.614272    0.501210     0.007504
AU2193   AU        0.501948    0.579525    0.501211     0.007504
AU2194   AU        0.502898    0.615221    0.469549     0.007504
AU2195   AU        0.538082    0.578999    0.467859     0.007504
AU2196   AU        0.539918    0.612079    0.504619     0.007504
AU2197   AU        0.574282    0.579196    0.499979     0.007504
AU2198   AU        0.572217    0.615223    0.466742     0.007504
AU2199   AU        0.611466    0.576299    0.467653     0.007504
AU2200   AU        0.609417    0.614683    0.502659     0.007504
AU2201   AU        0.646904    0.577311    0.501410     0.007504
AU2202   AU        0.644788    0.611662    0.468841     0.007504
AU2203   AU        0.681164    0.577960    0.467351     0.007504
AU2204   AU        0.683281    0.613018    0.501856     0.007504
AU2205   AU        0.718299    0.577420    0.501480     0.007504
PD2206   PD        0.717230    0.616567    0.466525     0.005394
PD2207   PD        0.750802    0.575662    0.466862     0.005394
AU2208   AU        0.752986    0.613947    0.502471     0.007504
AU2209   AU        0.786789    0.575731    0.503108     0.007504
PD2210   PD        0.786628    0.612293    0.469826     0.005394
PD2211   PD        0.822020    0.577087    0.468349     0.005394
PD2212   PD        0.821569    0.612537    0.499373     0.005394
PD2213   PD        0.858773    0.572725    0.503055     0.005394
PD2214   PD        0.890517    0.580681    0.467727     0.005394
PD2215   PD        0.109992    0.649780    0.464667     0.005394
PD2216   PD        0.111340    0.682186    0.500469     0.005394
PD2217   PD        0.144957    0.647089    0.503049     0.005394
PD2218   PD        0.144595    0.683346    0.468263     0.005394
AU2219   AU        0.179498    0.649833    0.467304     0.007504
PD2220   PD        0.176997    0.682940    0.503806     0.005394
AU2221   AU        0.214742    0.649169    0.501376     0.007504
AU2222   AU        0.213638    0.684015    0.468096     0.007504
AU2223   AU        0.248701    0.650957    0.467211     0.007504
PD2224   PD        0.248228    0.688246    0.500885     0.005394
PD2225   PD        0.283750    0.650123    0.501830     0.005394
PD2226   PD        0.286833    0.686204    0.466894     0.005394
AU2227   AU        0.321372    0.648283    0.467231     0.007504
PD2228   PD        0.321685    0.685649    0.499677     0.005394
AU2229   AU        0.358614    0.648470    0.499848     0.007504
AU2230   AU        0.358064    0.685537    0.468776     0.007504
AU2231   AU        0.391925    0.652629    0.468520     0.007504
AU2232   AU        0.392706    0.687841    0.502605     0.007504
AU2233   AU        0.430838    0.649694    0.502974     0.007504
AU2234   AU        0.429117    0.684278    0.468759     0.007504
AU2235   AU        0.465967    0.650522    0.467603     0.007504
AU2236   AU        0.464127    0.684968    0.500776     0.007504
AU2237   AU        0.501544    0.650409    0.501427     0.007504
AU2238   AU        0.500448    0.686209    0.468127     0.007504
AU2239   AU        0.537482    0.653468    0.466256     0.007504
AU2240   AU        0.538346    0.685802    0.499512     0.007504
AU2241   AU        0.573599    0.650598    0.501826     0.007504
AU2242   AU        0.572746    0.687207    0.466225     0.007504
AU2243   AU        0.608377    0.647896    0.470918     0.007504
AU2244   AU        0.611121    0.683477    0.501425     0.007504
AU2245   AU        0.646301    0.648725    0.501073     0.007504
PD2246   PD        0.645323    0.682272    0.467513     0.005394
AU2247   AU        0.683232    0.652169    0.468136     0.007504
AU2248   AU        0.682573    0.684686    0.502844     0.007504
PD2249   PD        0.718849    0.647953    0.500516     0.005394
AU2250   AU        0.718445    0.685131    0.469283     0.007504
AU2251   AU        0.753758    0.649191    0.469550     0.007504
AU2252   AU        0.752331    0.681284    0.502356     0.007504
AU2253   AU        0.786903    0.647410    0.503546     0.007504
PD2254   PD        0.789439    0.684033    0.470938     0.005394
PD2255   PD        0.820825    0.651365    0.467728     0.005394
PD2256   PD        0.824486    0.678864    0.504484     0.005394
PD2257   PD        0.142564    0.718425    0.502848     0.005394
PD2258   PD        0.179218    0.719226    0.467723     0.005394
PD2259   PD        0.178019    0.790594    0.466910     0.005394
AU2260   AU        0.213096    0.722244    0.499766     0.007504
PD2261   PD        0.216268    0.754771    0.466176     0.005394
PD2262   PD        0.251833    0.723668    0.468686     0.005394
PD2263   PD        0.248953    0.757803    0.503570     0.005394
AU2264   AU        0.287740    0.720254    0.500690     0.007504
PD2265   PD        0.284300    0.758223    0.468979     0.005394
AU2266   AU        0.323411    0.720127    0.468928     0.007504
PD2267   PD        0.321898    0.757226    0.500608     0.005394
AU2268   AU        0.358863    0.722929    0.500702     0.007504
AU2269   AU        0.359061    0.756113    0.468866     0.007504
AU2270   AU        0.391564    0.721245    0.469675     0.007504
AU2271   AU        0.395952    0.756701    0.499794     0.007504
AU2272   AU        0.428618    0.721856    0.501055     0.007504
AU2273   AU        0.430508    0.755146    0.468878     0.007504
AU2274   AU        0.465382    0.719209    0.468779     0.007504
AU2275   AU        0.465774    0.756745    0.501208     0.007504
AU2276   AU        0.501421    0.721308    0.500324     0.007504
AU2277   AU        0.502116    0.755242    0.466816     0.007504
AU2278   AU        0.537325    0.720242    0.467340     0.007504
PD2279   PD        0.538409    0.752809    0.499772     0.005394
PD2280   PD        0.576068    0.719614    0.500774     0.005394
PD2281   PD        0.573125    0.758609    0.468435     0.005394
PD2282   PD        0.612522    0.722432    0.465745     0.005394
PD2283   PD        0.611421    0.755731    0.499842     0.005394
AU2284   AU        0.646252    0.718255    0.502228     0.007504
PD2285   PD        0.645290    0.756121    0.466706     0.005394
PD2286   PD        0.680857    0.719673    0.469095     0.005394
PD2287   PD        0.683084    0.754444    0.503949     0.005394
AU2288   AU        0.717559    0.718422    0.501900     0.007504
PD2289   PD        0.718075    0.752715    0.471394     0.005394
PD2290   PD        0.754897    0.716659    0.470606     0.005394
PD2291   PD        0.755391    0.751417    0.500525     0.005394
PD2292   PD        0.790045    0.716245    0.504918     0.005394
PD2293   PD        0.253824    0.829986    0.506666     0.005394
PD2294   PD        0.251086    0.788912    0.467846     0.005394
PD2295   PD        0.286211    0.791437    0.501787     0.005394
PD2296   PD        0.290419    0.828095    0.477818     0.005394
PD2297   PD        0.324018    0.794235    0.469804     0.005394
PD2298   PD        0.320216    0.825482    0.503168     0.005394
AU2299   AU        0.359414    0.789990    0.503606     0.007504
PD2300   PD        0.359538    0.824915    0.471446     0.005394
AU2301   AU        0.395110    0.792006    0.467928     0.007504
PD2302   PD        0.392155    0.824761    0.502594     0.005394
PD2303   PD        0.434156    0.792413    0.502615     0.005394
PD2304   PD        0.431036    0.824869    0.467703     0.005394
PD2305   PD        0.465331    0.790951    0.466364     0.005394
PD2306   PD        0.466937    0.826128    0.502086     0.005394
PD2307   PD        0.501033    0.790497    0.501091     0.005394
AU2308   AU        0.499882    0.823960    0.467129     0.007504
PD2309   PD        0.536579    0.789660    0.466944     0.005394
PD2310   PD        0.534385    0.826335    0.501251     0.005394
PD2311   PD        0.570485    0.792903    0.502013     0.005394
PD2312   PD        0.571297    0.825213    0.468313     0.005394
AU2313   AU        0.611298    0.791307    0.467359     0.007504
PD2314   PD        0.608977    0.827838    0.498689     0.005394
PD2315   PD        0.646610    0.793054    0.502007     0.005394
PD2316   PD        0.653833    0.899575    0.466867     0.005394
PD2317   PD        0.681341    0.787577    0.469640     0.005394
PD2318   PD        0.716524    0.789723    0.502565     0.005394
PD2319   PD        0.394946    0.859918    0.469762     0.005394
PD2320   PD        0.432554    0.861597    0.499496     0.005394
PD2321   PD        0.466241    0.860199    0.466760     0.005394
PD2322   PD        0.499080    0.860418    0.501559     0.005394
PD2323   PD        0.531771    0.859102    0.467286     0.005394
PD2324   PD        0.251415    0.043065    0.499154     0.005394
PD2325   PD        0.322339    0.045345    0.566922     0.005394
PD2326   PD        0.358739    0.044821    0.532421     0.005394
PD2327   PD        0.387098    0.007454    0.532783     0.005394
PD2328   PD        0.427374    0.044026    0.530683     0.005394
PD2329   PD        0.465984    0.011922    0.533497     0.005394
PD2330   PD        0.461929    0.043543    0.567944     0.005394
PD2331   PD        0.500623    0.045774    0.536232     0.005394
PD2332   PD        0.530990    0.043384    0.569570     0.005394
PD2333   PD        0.571796    0.046533    0.535776     0.005394
PD2334   PD        0.659706    0.041446    0.598875     0.005394
PD2335   PD        0.645897    0.042385    0.541226     0.005394
PD2336   PD        0.215469    0.111491    0.535202     0.005394
PD2337   PD        0.251928    0.078267    0.531702     0.005394
AU2338   AU        0.250056    0.113746    0.567997     0.007504
PD2339   PD        0.287407    0.077092    0.567925     0.005394
AU2340   AU        0.286582    0.112544    0.535741     0.007504
PD2341   PD        0.321451    0.077510    0.533505     0.005394
AU2342   AU        0.322427    0.113241    0.567219     0.007504
PD2343   PD        0.359879    0.079224    0.567051     0.005394
AU2344   AU        0.356808    0.111043    0.534586     0.007504
PD2345   PD        0.390317    0.077482    0.538859     0.005394
PD2346   PD        0.393467    0.114593    0.568646     0.005394
PD2347   PD        0.428342    0.077552    0.569875     0.005394
PD2348   PD        0.426688    0.110613    0.532492     0.005394
PD2349   PD        0.463096    0.078175    0.534940     0.005394
AU2350   AU        0.464868    0.112906    0.567149     0.007504
PD2351   PD        0.499552    0.079604    0.568379     0.005394
AU2352   AU        0.501448    0.113449    0.534679     0.007504
AU2353   AU        0.536576    0.080441    0.535276     0.007504
PD2354   PD        0.534288    0.113753    0.567165     0.005394
AU2355   AU        0.571010    0.080104    0.568887     0.007504
AU2356   AU        0.573986    0.112726    0.533943     0.007504
PD2357   PD        0.608094    0.079301    0.535695     0.005394
PD2358   PD        0.608969    0.111971    0.568029     0.005394
PD2359   PD        0.645791    0.081284    0.566812     0.005394
PD2360   PD        0.645616    0.115914    0.535235     0.005394
PD2361   PD        0.679796    0.075694    0.530427     0.005394
PD2362   PD        0.683071    0.114490    0.568618     0.005394
PD2363   PD        0.714130    0.113644    0.532852     0.005394
PD2364   PD        0.141516    0.151583    0.571260     0.005394
PD2365   PD        0.181372    0.146254    0.536422     0.005394
PD2366   PD        0.178757    0.186702    0.568720     0.005394
PD2367   PD        0.214153    0.150718    0.569454     0.005394
PD2368   PD        0.214548    0.184515    0.537264     0.005394
PD2369   PD        0.250583    0.149452    0.534948     0.005394
AU2370   AU        0.248468    0.183305    0.570584     0.007504
AU2371   AU        0.285479    0.149567    0.568464     0.007504
PD2372   PD        0.289186    0.184623    0.533465     0.005394
AU2373   AU        0.321346    0.148075    0.533593     0.007504
AU2374   AU        0.321194    0.182677    0.570014     0.007504
PD2375   PD        0.354793    0.146472    0.568533     0.005394
AU2376   AU        0.355534    0.184440    0.534902     0.007504
AU2377   AU        0.389677    0.148825    0.534681     0.007504
PD2378   PD        0.392768    0.183575    0.569483     0.005394
AU2379   AU        0.429521    0.149140    0.567214     0.007504
AU2380   AU        0.428456    0.183217    0.534348     0.007504
AU2381   AU        0.464748    0.147284    0.535667     0.007504
AU2382   AU        0.464852    0.182610    0.566898     0.007504
AU2383   AU        0.500430    0.147312    0.567712     0.007504
AU2384   AU        0.499731    0.183660    0.535602     0.007504
AU2385   AU        0.536262    0.149918    0.535937     0.007504
AU2386   AU        0.536451    0.183508    0.569267     0.007504
AU2387   AU        0.571595    0.147639    0.567742     0.007504
AU2388   AU        0.571644    0.183673    0.534791     0.007504
AU2389   AU        0.607540    0.148518    0.536418     0.007504
AU2390   AU        0.608718    0.184633    0.567201     0.007504
AU2391   AU        0.644014    0.149552    0.569017     0.007504
PD2392   PD        0.642931    0.182003    0.536376     0.005394
AU2393   AU        0.679747    0.149213    0.534692     0.007504
PD2394   PD        0.679273    0.184927    0.567937     0.005394
PD2395   PD        0.714110    0.150965    0.567079     0.005394
AU2396   AU        0.715901    0.183423    0.533997     0.007504
AU2397   AU        0.750468    0.150457    0.532374     0.007504
AU2398   AU        0.750921    0.182989    0.567615     0.007504
PD2399   PD        0.787031    0.182406    0.535822     0.005394
PD2400   PD        0.032312    0.255996    0.501134     0.005394
PD2401   PD        0.108863    0.218106    0.539516     0.005394
PD2402   PD        0.110307    0.254497    0.566708     0.005394
PD2403   PD        0.108573    0.179203    0.567435     0.005394
PD2404   PD        0.144897    0.256091    0.533693     0.005394
PD2405   PD        0.179754    0.220515    0.534789     0.005394
PD2406   PD        0.178682    0.254886    0.571983     0.005394
AU2407   AU        0.215052    0.219097    0.569675     0.007504
PD2408   PD        0.213041    0.254456    0.538334     0.005394
PD2409   PD        0.249335    0.216470    0.536054     0.005394
AU2410   AU        0.249424    0.254844    0.570906     0.007504
PD2411   PD        0.284066    0.221513    0.567820     0.005394
PD2412   PD        0.284936    0.255642    0.534719     0.005394
PD2413   PD        0.319186    0.216864    0.535065     0.005394
AU2414   AU        0.323475    0.255116    0.568184     0.007504
AU2415   AU        0.356827    0.217107    0.569307     0.007504
AU2416   AU        0.359202    0.253373    0.534710     0.007504
AU2417   AU        0.394334    0.216753    0.536359     0.007504
AU2418   AU        0.391675    0.252715    0.571007     0.007504
AU2419   AU        0.428413    0.216995    0.568108     0.007504
AU2420   AU        0.427543    0.255048    0.534525     0.007504
AU2421   AU        0.462699    0.218944    0.536296     0.007504
AU2422   AU        0.463811    0.253922    0.567679     0.007504
AU2423   AU        0.499384    0.218798    0.567634     0.007504
AU2424   AU        0.499401    0.251228    0.534582     0.007504
AU2425   AU        0.536945    0.217033    0.535768     0.007504
AU2426   AU        0.535460    0.254263    0.567285     0.007504
AU2427   AU        0.573082    0.219493    0.568379     0.007504
AU2428   AU        0.572619    0.252399    0.535000     0.007504
AU2429   AU        0.607156    0.217584    0.533292     0.007504
AU2430   AU        0.609818    0.253867    0.567622     0.007504
AU2431   AU        0.644089    0.219130    0.566036     0.007504
AU2432   AU        0.645310    0.253288    0.534169     0.007504
AU2433   AU        0.680924    0.219643    0.533924     0.007504
AU2434   AU        0.682196    0.254621    0.567310     0.007504
PD2435   PD        0.717186    0.218580    0.566145     0.005394
AU2436   AU        0.715895    0.254673    0.534209     0.007504
AU2437   AU        0.754510    0.220730    0.535323     0.007504
PD2438   PD        0.752438    0.255660    0.567400     0.005394
PD2439   PD        0.788210    0.217110    0.568192     0.005394
PD2440   PD        0.786045    0.255389    0.533810     0.005394
PD2441   PD        0.821575    0.221446    0.534200     0.005394
AU2442   AU        0.820901    0.254846    0.570501     0.007504
PD2443   PD        0.858067    0.258004    0.534263     0.005394
PD2444   PD        0.077688    0.290500    0.567564     0.005394
PD2445   PD        0.076608    0.325572    0.535676     0.005394
AU2446   AU        0.107690    0.292185    0.533936     0.007504
AU2447   AU        0.108626    0.328080    0.569164     0.007504
PD2448   PD        0.142227    0.291409    0.567913     0.005394
AU2449   AU        0.142179    0.325231    0.534262     0.007504
AU2450   AU        0.179463    0.290586    0.533785     0.007504
AU2451   AU        0.176941    0.327995    0.570983     0.007504
AU2452   AU        0.212138    0.291864    0.571056     0.007504
AU2453   AU        0.212582    0.327701    0.538684     0.007504
AU2454   AU        0.247510    0.292336    0.536586     0.007504
AU2455   AU        0.248422    0.326569    0.569657     0.007504
AU2456   AU        0.285797    0.289390    0.570107     0.007504
AU2457   AU        0.285043    0.324303    0.535405     0.007504
AU2458   AU        0.319521    0.291742    0.536111     0.007504
AU2459   AU        0.320502    0.325212    0.570440     0.007504
AU2460   AU        0.355693    0.291583    0.567241     0.007504
AU2461   AU        0.354876    0.326995    0.535468     0.007504
AU2462   AU        0.391273    0.290453    0.535817     0.007504
AU2463   AU        0.394077    0.329285    0.567155     0.007504
AU2464   AU        0.428018    0.287419    0.569085     0.007504
AU2465   AU        0.429489    0.325569    0.534087     0.007504
AU2466   AU        0.463576    0.289985    0.536883     0.007504
AU2467   AU        0.462717    0.326226    0.569923     0.007504
AU2468   AU        0.502676    0.287901    0.567592     0.007504
AU2469   AU        0.499439    0.324649    0.536010     0.007504
AU2470   AU        0.536539    0.289623    0.535009     0.007504
AU2471   AU        0.538174    0.324320    0.567619     0.007504
AU2472   AU        0.571753    0.288374    0.568872     0.007504
AU2473   AU        0.573503    0.325082    0.533321     0.007504
AU2474   AU        0.609156    0.287664    0.534061     0.007504
AU2475   AU        0.607241    0.325852    0.566473     0.007504
AU2476   AU        0.644629    0.288242    0.566202     0.007504
AU2477   AU        0.644603    0.328721    0.534428     0.007504
AU2478   AU        0.680314    0.292378    0.534506     0.007504
AU2479   AU        0.679688    0.326567    0.566528     0.007504
AU2480   AU        0.718163    0.291473    0.567366     0.007504
AU2481   AU        0.717507    0.325552    0.534174     0.007504
AU2482   AU        0.752829    0.290736    0.535252     0.007504
PD2483   PD        0.752877    0.325444    0.567746     0.005394
AU2484   AU        0.785741    0.291125    0.570054     0.007504
PD2485   PD        0.788020    0.325600    0.536990     0.005394
PD2486   PD        0.822780    0.290217    0.535823     0.005394
AU2487   AU        0.823075    0.323900    0.567371     0.007504
PD2488   PD        0.859281    0.291903    0.566537     0.005394
PD2489   PD        0.856926    0.325872    0.534396     0.005394
PD2490   PD        0.074867    0.363820    0.567493     0.005394
AU2491   AU        0.074918    0.398589    0.534515     0.007504
AU2492   AU        0.111281    0.363043    0.536352     0.007504
AU2493   AU        0.108318    0.398408    0.568568     0.007504
PD2494   PD        0.142266    0.361926    0.570219     0.005394
AU2495   AU        0.142448    0.399035    0.535936     0.007504
AU2496   AU        0.176896    0.361990    0.536443     0.007504
AU2497   AU        0.177349    0.397812    0.570598     0.007504
AU2498   AU        0.212814    0.362999    0.567913     0.007504
AU2499   AU        0.211532    0.397233    0.535459     0.007504
AU2500   AU        0.248668    0.363812    0.534246     0.007504
AU2501   AU        0.252340    0.394271    0.570084     0.007504
AU2502   AU        0.287492    0.362616    0.569282     0.007504
AU2503   AU        0.285367    0.395948    0.535437     0.007504
AU2504   AU        0.318222    0.360291    0.534951     0.007504
AU2505   AU        0.320468    0.398746    0.568668     0.007504
AU2506   AU        0.354016    0.362189    0.569280     0.007504
AU2507   AU        0.355432    0.396651    0.534802     0.007504
AU2508   AU        0.390711    0.362343    0.534931     0.007504
AU2509   AU        0.391439    0.396392    0.570280     0.007504
AU2510   AU        0.431048    0.362840    0.569206     0.007504
AU2511   AU        0.428708    0.397686    0.535142     0.007504
AU2512   AU        0.464954    0.361435    0.534126     0.007504
AU2513   AU        0.464786    0.396572    0.569578     0.007504
AU2514   AU        0.499682    0.360624    0.566887     0.007504
AU2515   AU        0.503429    0.398740    0.535256     0.007504
AU2516   AU        0.536679    0.362374    0.534914     0.007504
AU2517   AU        0.537600    0.397457    0.567178     0.007504
AU2518   AU        0.572190    0.363154    0.567388     0.007504
AU2519   AU        0.571232    0.399029    0.532213     0.007504
AU2520   AU        0.610848    0.362306    0.532784     0.007504
AU2521   AU        0.611526    0.397787    0.569130     0.007504
AU2522   AU        0.645873    0.363307    0.568391     0.007504
AU2523   AU        0.646262    0.398733    0.534896     0.007504
AU2524   AU        0.679995    0.362483    0.534748     0.007504
AU2525   AU        0.681720    0.396742    0.567680     0.007504
AU2526   AU        0.716392    0.360865    0.566008     0.007504
AU2527   AU        0.718953    0.398393    0.533034     0.007504
AU2528   AU        0.753179    0.361737    0.536288     0.007504
AU2529   AU        0.752044    0.397043    0.568088     0.007504
PD2530   PD        0.788966    0.361903    0.569749     0.005394
AU2531   AU        0.787916    0.397358    0.534858     0.007504
PD2532   PD        0.822761    0.363439    0.535252     0.005394
AU2533   AU        0.823747    0.399274    0.569570     0.007504
PD2534   PD        0.855342    0.360897    0.567940     0.005394
PD2535   PD        0.857305    0.397960    0.536953     0.005394
PD2536   PD        0.042111    0.434411    0.534885     0.005394
PD2537   PD        0.042881    0.433229    0.602684     0.005394
PD2538   PD        0.071225    0.465128    0.537315     0.005394
AU2539   AU        0.107202    0.433758    0.534779     0.007504
AU2540   AU        0.107535    0.470299    0.569203     0.007504
AU2541   AU        0.141836    0.434493    0.568800     0.007504
AU2542   AU        0.142270    0.468961    0.537759     0.007504
AU2543   AU        0.179894    0.433129    0.537469     0.007504
AU2544   AU        0.177556    0.470891    0.570395     0.007504
AU2545   AU        0.213821    0.432311    0.569464     0.007504
AU2546   AU        0.212858    0.467801    0.534094     0.007504
AU2547   AU        0.248257    0.432752    0.535865     0.007504
AU2548   AU        0.248777    0.469049    0.569837     0.007504
AU2549   AU        0.282929    0.435030    0.568970     0.007504
AU2550   AU        0.286433    0.470672    0.534545     0.007504
AU2551   AU        0.320063    0.432800    0.535237     0.007504
AU2552   AU        0.323090    0.468875    0.568860     0.007504
AU2553   AU        0.357881    0.433408    0.568977     0.007504
AU2554   AU        0.356272    0.470952    0.536775     0.007504
AU2555   AU        0.392988    0.434003    0.537012     0.007504
AU2556   AU        0.394026    0.470478    0.568188     0.007504
AU2557   AU        0.429232    0.432355    0.569080     0.007504
AU2558   AU        0.427097    0.468481    0.534710     0.007504
AU2559   AU        0.466933    0.430719    0.532195     0.007504
AU2560   AU        0.464059    0.468857    0.568282     0.007504
AU2561   AU        0.498563    0.433959    0.568372     0.007504
AU2562   AU        0.501220    0.469856    0.533777     0.007504
AU2563   AU        0.536423    0.434779    0.536613     0.007504
AU2564   AU        0.537006    0.471790    0.569188     0.007504
AU2565   AU        0.575259    0.433697    0.569577     0.007504
AU2566   AU        0.573580    0.469735    0.532990     0.007504
AU2567   AU        0.607638    0.433314    0.535326     0.007504
AU2568   AU        0.608744    0.470024    0.568897     0.007504
AU2569   AU        0.645753    0.434078    0.569814     0.007504
AU2570   AU        0.644636    0.470348    0.534898     0.007504
AU2571   AU        0.682623    0.436100    0.535329     0.007504
AU2572   AU        0.680137    0.471182    0.566872     0.007504
AU2573   AU        0.716185    0.433870    0.568256     0.007504
AU2574   AU        0.718498    0.471229    0.533886     0.007504
AU2575   AU        0.753923    0.432040    0.537001     0.007504
AU2576   AU        0.753420    0.470641    0.567365     0.007504
AU2577   AU        0.787269    0.434539    0.568768     0.007504
AU2578   AU        0.788239    0.470111    0.534755     0.007504
AU2579   AU        0.821957    0.435365    0.537210     0.007504
AU2580   AU        0.821071    0.470377    0.569392     0.007504
AU2581   AU        0.856276    0.435758    0.569208     0.007504
PD2582   PD        0.853640    0.470878    0.535295     0.005394
PD2583   PD        0.889361    0.436242    0.537625     0.005394
PD2584   PD        0.071390    0.507055    0.569687     0.005394
PD2585   PD        0.073487    0.545401    0.538950     0.005394
PD2586   PD        0.107255    0.506516    0.537213     0.005394
PD2587   PD        0.107623    0.543253    0.569686     0.005394
AU2588   AU        0.143812    0.506298    0.571581     0.007504
PD2589   PD        0.144518    0.540751    0.536797     0.005394
AU2590   AU        0.176571    0.505593    0.537048     0.007504
AU2591   AU        0.177439    0.540093    0.569597     0.007504
AU2592   AU        0.212870    0.505081    0.570296     0.007504
PD2593   PD        0.212366    0.541793    0.535582     0.005394
AU2594   AU        0.249790    0.502718    0.536622     0.007504
PD2595   PD        0.247234    0.540221    0.568877     0.005394
AU2596   AU        0.286683    0.506748    0.568687     0.007504
AU2597   AU        0.282694    0.540975    0.533644     0.007504
AU2598   AU        0.321175    0.507603    0.532919     0.007504
AU2599   AU        0.321623    0.541372    0.566719     0.007504
AU2600   AU        0.357899    0.509577    0.566082     0.007504
AU2601   AU        0.356821    0.543521    0.533008     0.007504
AU2602   AU        0.393773    0.505992    0.536315     0.007504
AU2603   AU        0.395329    0.543226    0.568254     0.007504
AU2604   AU        0.428939    0.506932    0.569446     0.007504
AU2605   AU        0.428389    0.542702    0.533486     0.007504
AU2606   AU        0.464264    0.504799    0.535177     0.007504
AU2607   AU        0.465119    0.541944    0.568155     0.007504
AU2608   AU        0.500310    0.504123    0.567637     0.007504
AU2609   AU        0.501696    0.541945    0.534029     0.007504
AU2610   AU        0.535960    0.505992    0.534566     0.007504
AU2611   AU        0.535321    0.543268    0.569854     0.007504
AU2612   AU        0.574468    0.505177    0.569694     0.007504
AU2613   AU        0.572138    0.542411    0.535508     0.007504
AU2614   AU        0.609579    0.505860    0.534797     0.007504
AU2615   AU        0.609298    0.540838    0.569199     0.007504
AU2616   AU        0.644651    0.505770    0.568615     0.007504
AU2617   AU        0.646751    0.540620    0.535038     0.007504
AU2618   AU        0.682053    0.505333    0.534749     0.007504
AU2619   AU        0.681669    0.542543    0.569187     0.007504
PD2620   PD        0.716196    0.505252    0.568012     0.005394
AU2621   AU        0.718341    0.541203    0.533131     0.007504
AU2622   AU        0.751862    0.504738    0.535114     0.007504
AU2623   AU        0.752043    0.541366    0.568161     0.007504
AU2624   AU        0.786186    0.507053    0.567830     0.007504
PD2625   PD        0.788820    0.540730    0.534948     0.005394
AU2626   AU        0.821593    0.505833    0.537132     0.007504
AU2627   AU        0.819582    0.541333    0.568856     0.007504
PD2628   PD        0.857689    0.504943    0.567585     0.005394
PD2629   PD        0.853880    0.540348    0.535527     0.005394
PD2630   PD        0.073742    0.580255    0.568226     0.005394
PD2631   PD        0.075794    0.613844    0.534396     0.005394
PD2632   PD        0.111577    0.578629    0.537603     0.005394
PD2633   PD        0.110326    0.611126    0.569210     0.005394
PD2634   PD        0.143810    0.576942    0.569479     0.005394
PD2635   PD        0.144468    0.613016    0.536832     0.005394
PD2636   PD        0.181124    0.579378    0.537388     0.005394
PD2637   PD        0.178517    0.614816    0.570678     0.005394
PD2638   PD        0.211858    0.577755    0.571365     0.005394
PD2639   PD        0.213797    0.614888    0.534609     0.005394
PD2640   PD        0.250148    0.579019    0.536653     0.005394
PD2641   PD        0.249907    0.614059    0.572114     0.005394
PD2642   PD        0.287796    0.577906    0.569517     0.005394
PD2643   PD        0.284909    0.613320    0.533643     0.005394
AU2644   AU        0.320617    0.579074    0.533357     0.007504
AU2645   AU        0.323348    0.612723    0.569534     0.007504
AU2646   AU        0.358585    0.577062    0.569368     0.007504
AU2647   AU        0.358055    0.610635    0.536625     0.007504
AU2648   AU        0.393098    0.577168    0.534516     0.007504
AU2649   AU        0.392648    0.612488    0.569165     0.007504
AU2650   AU        0.429151    0.577960    0.567014     0.007504
AU2651   AU        0.428653    0.614484    0.534147     0.007504
AU2652   AU        0.466727    0.577905    0.533130     0.007504
AU2653   AU        0.465399    0.614138    0.566438     0.007504
AU2654   AU        0.501463    0.578887    0.566806     0.007504
AU2655   AU        0.501907    0.615624    0.534107     0.007504
AU2656   AU        0.535693    0.574819    0.535113     0.007504
AU2657   AU        0.539993    0.613308    0.568743     0.007504
AU2658   AU        0.572242    0.577822    0.568834     0.007504
AU2659   AU        0.574729    0.613082    0.536005     0.007504
AU2660   AU        0.612425    0.576753    0.534361     0.007504
AU2661   AU        0.611961    0.612082    0.569160     0.007504
AU2662   AU        0.647184    0.577956    0.567166     0.007504
AU2663   AU        0.645966    0.614705    0.533826     0.007504
AU2664   AU        0.682647    0.576825    0.535220     0.007504
AU2665   AU        0.680587    0.612150    0.569696     0.007504
AU2666   AU        0.717533    0.577649    0.568960     0.007504
AU2667   AU        0.718429    0.613049    0.534763     0.007504
AU2668   AU        0.752267    0.576218    0.534158     0.007504
AU2669   AU        0.752001    0.613773    0.568188     0.007504
PD2670   PD        0.786014    0.579704    0.569283     0.005394
PD2671   PD        0.785171    0.612339    0.534137     0.005394
PD2672   PD        0.820836    0.578544    0.532845     0.005394
PD2673   PD        0.823627    0.611584    0.570922     0.005394
PD2674   PD        0.854854    0.575400    0.567845     0.005394
PD2675   PD        0.856785    0.612241    0.537233     0.005394
PD2676   PD        0.106939    0.650989    0.535695     0.005394
PD2677   PD        0.142439    0.649909    0.567647     0.005394
PD2678   PD        0.144831    0.683028    0.535815     0.005394
PD2679   PD        0.178172    0.651386    0.533370     0.005394
AU2680   AU        0.181579    0.685611    0.570326     0.007504
AU2681   AU        0.215879    0.650441    0.571068     0.007504
PD2682   PD        0.215882    0.682487    0.536191     0.005394
PD2683   PD        0.249596    0.650270    0.533623     0.005394
PD2684   PD        0.249544    0.685564    0.571083     0.005394
PD2685   PD        0.286736    0.651563    0.572371     0.005394
PD2686   PD        0.285540    0.686365    0.535872     0.005394
PD2687   PD        0.324330    0.647690    0.535719     0.005394
AU2688   AU        0.321503    0.686179    0.570545     0.007504
AU2689   AU        0.357001    0.650062    0.570051     0.007504
PD2690   PD        0.359000    0.687658    0.534795     0.005394
AU2691   AU        0.394856    0.650325    0.534106     0.007504
AU2692   AU        0.395574    0.684990    0.569644     0.007504
AU2693   AU        0.429598    0.648376    0.569431     0.007504
PD2694   PD        0.428780    0.686271    0.534025     0.005394
AU2695   AU        0.466118    0.650856    0.535180     0.007504
AU2696   AU        0.464469    0.685820    0.567958     0.007504
AU2697   AU        0.500472    0.649048    0.568231     0.007504
AU2698   AU        0.500839    0.685785    0.532869     0.007504
AU2699   AU        0.537242    0.650398    0.533809     0.007504
PD2700   PD        0.534265    0.682757    0.571037     0.005394
AU2701   AU        0.572867    0.648424    0.566569     0.007504
AU2702   AU        0.575319    0.685061    0.534454     0.007504
AU2703   AU        0.610103    0.648922    0.536551     0.007504
AU2704   AU        0.608415    0.683483    0.569189     0.007504
PD2705   PD        0.646959    0.650188    0.569517     0.005394
AU2706   AU        0.645947    0.686325    0.536561     0.007504
PD2707   PD        0.680279    0.650294    0.534902     0.005394
PD2708   PD        0.682416    0.685433    0.569163     0.005394
PD2709   PD        0.718066    0.648499    0.568428     0.005394
AU2710   AU        0.717261    0.683274    0.536186     0.007504
AU2711   AU        0.751902    0.648467    0.535695     0.007504
PD2712   PD        0.753285    0.684235    0.572814     0.005394
PD2713   PD        0.784768    0.649096    0.570058     0.005394
PD2714   PD        0.788155    0.679783    0.538711     0.005394
PD2715   PD        0.820396    0.645763    0.534681     0.005394
PD2716   PD        0.177333    0.720023    0.535903     0.005394
PD2717   PD        0.214511    0.719717    0.569827     0.005394
PD2718   PD        0.214783    0.757120    0.537595     0.005394
PD2719   PD        0.250643    0.717347    0.535289     0.005394
PD2720   PD        0.253784    0.755970    0.569334     0.005394
PD2721   PD        0.287857    0.722661    0.571004     0.005394
AU2722   AU        0.284308    0.755048    0.532381     0.007504
PD2723   PD        0.321202    0.722795    0.534522     0.005394
PD2724   PD        0.324411    0.758877    0.567311     0.005394
PD2725   PD        0.358000    0.720229    0.571023     0.005394
PD2726   PD        0.359563    0.753668    0.536547     0.005394
AU2727   AU        0.394662    0.720820    0.536429     0.007504
AU2728   AU        0.391032    0.755652    0.568322     0.007504
AU2729   AU        0.428060    0.722220    0.567929     0.007504
PD2730   PD        0.427130    0.755897    0.535767     0.005394
AU2731   AU        0.463482    0.722014    0.532821     0.007504
AU2732   AU        0.463989    0.754755    0.568041     0.007504
PD2733   PD        0.500842    0.719456    0.568058     0.005394
PD2734   PD        0.502678    0.754167    0.533971     0.005394
PD2735   PD        0.536665    0.720388    0.535235     0.005394
PD2736   PD        0.537343    0.756737    0.570175     0.005394
AU2737   AU        0.575514    0.719995    0.568806     0.007504
PD2738   PD        0.571990    0.751858    0.533376     0.005394
AU2739   AU        0.608890    0.720415    0.532915     0.007504
AU2740   AU        0.607741    0.753832    0.570310     0.007504
PD2741   PD        0.642806    0.719671    0.566215     0.005394
PD2742   PD        0.645019    0.755671    0.532594     0.005394
PD2743   PD        0.682837    0.719587    0.535120     0.005394
PD2744   PD        0.678957    0.753428    0.566402     0.005394
PD2745   PD        0.718955    0.717042    0.567809     0.005394
PD2746   PD        0.716318    0.754192    0.535229     0.005394
PD2747   PD        0.750966    0.716736    0.533858     0.005394
PD2748   PD        0.251291    0.792088    0.537711     0.005394
PD2749   PD        0.288360    0.791653    0.567881     0.005394
PD2750   PD        0.245036    0.865934    0.536496     0.005394
PD2751   PD        0.326174    0.789574    0.533836     0.005394
PD2752   PD        0.329313    0.826028    0.569491     0.005394
PD2753   PD        0.362444    0.794209    0.569809     0.005394
AU2754   AU        0.360374    0.825934    0.536325     0.007504
AU2755   AU        0.393601    0.789131    0.535994     0.007504
PD2756   PD        0.393523    0.821470    0.569324     0.005394
PD2757   PD        0.428601    0.790898    0.567525     0.005394
PD2758   PD        0.431825    0.825637    0.537062     0.005394
PD2759   PD        0.466498    0.790150    0.535367     0.005394
AU2760   AU        0.463912    0.827092    0.568481     0.007504
PD2761   PD        0.502185    0.790138    0.566356     0.005394
PD2762   PD        0.501209    0.827319    0.537256     0.005394
PD2763   PD        0.538326    0.792309    0.533991     0.005394
PD2764   PD        0.538465    0.829002    0.567440     0.005394
PD2765   PD        0.569284    0.789216    0.567168     0.005394
PD2766   PD        0.575411    0.824494    0.535405     0.005394
PD2767   PD        0.609089    0.788806    0.535416     0.005394
PD2768   PD        0.616117    0.826382    0.634443     0.005394
AU2769   AU        0.643426    0.787436    0.565993     0.007504
PD2770   PD        0.641268    0.824667    0.534893     0.005394
PD2771   PD        0.680653    0.786312    0.531505     0.005394
PD2772   PD        0.464816    0.860197    0.534600     0.005394
PD2773   PD        0.355450    0.043621    0.600011     0.005394
PD2774   PD        0.393843    0.041969    0.633374     0.005394
PD2775   PD        0.392580    0.043114    0.567886     0.005394
PD2776   PD        0.498533    0.003212    0.631386     0.005394
PD2777   PD        0.497736    0.038838    0.604159     0.005394
PD2778   PD        0.534163    0.042010    0.632352     0.005394
PD2779   PD        0.578869    0.000714    0.629651     0.005394
PD2780   PD        0.215950    0.114641    0.603358     0.005394
PD2781   PD        0.250015    0.110667    0.637252     0.005394
PD2782   PD        0.286979    0.075615    0.633634     0.005394
PD2783   PD        0.285053    0.112086    0.601696     0.005394
PD2784   PD        0.319900    0.076988    0.600852     0.005394
AU2785   AU        0.319800    0.111670    0.635157     0.007504
PD2786   PD        0.357403    0.076434    0.634198     0.005394
AU2787   AU        0.356375    0.112725    0.604136     0.007504
AU2788   AU        0.389937    0.080887    0.601162     0.007504
AU2789   AU        0.391136    0.112926    0.636300     0.007504
PD2790   PD        0.425231    0.079942    0.633409     0.005394
AU2791   AU        0.428875    0.115154    0.602839     0.007504
AU2792   AU        0.464913    0.077266    0.602222     0.007504
AU2793   AU        0.463537    0.113214    0.633955     0.007504
PD2794   PD        0.499210    0.082379    0.634552     0.005394
PD2795   PD        0.499865    0.115828    0.601913     0.005394
PD2796   PD        0.536060    0.076782    0.601289     0.005394
PD2797   PD        0.536005    0.113688    0.635985     0.005394
PD2798   PD        0.571236    0.072163    0.632185     0.005394
AU2799   AU        0.571100    0.113274    0.604356     0.007504
PD2800   PD        0.606438    0.081158    0.603177     0.005394
PD2801   PD        0.608335    0.115068    0.634396     0.005394
PD2802   PD        0.646540    0.076024    0.632645     0.005394
PD2803   PD        0.642925    0.115322    0.603270     0.005394
PD2804   PD        0.679697    0.113415    0.632118     0.005394
PD2805   PD        0.718303    0.117404    0.601097     0.005394
PD2806   PD        0.146910    0.182553    0.602345     0.005394
PD2807   PD        0.180696    0.146861    0.600898     0.005394
PD2808   PD        0.181903    0.184553    0.636032     0.005394
PD2809   PD        0.214628    0.148385    0.635251     0.005394
AU2810   AU        0.214907    0.185438    0.604790     0.007504
PD2811   PD        0.251380    0.146050    0.602951     0.005394
AU2812   AU        0.250407    0.183605    0.634746     0.007504
PD2813   PD        0.285864    0.149293    0.633789     0.005394
AU2814   AU        0.281627    0.183422    0.601381     0.007504
PD2815   PD        0.319149    0.148798    0.601023     0.005394
PD2816   PD        0.320265    0.182966    0.635819     0.005394
AU2817   AU        0.356219    0.147428    0.636289     0.007504
AU2818   AU        0.353885    0.181735    0.602408     0.007504
PD2819   PD        0.390449    0.146744    0.602910     0.005394
PD2820   PD        0.391741    0.180347    0.637882     0.005394
AU2821   AU        0.426706    0.148496    0.634936     0.007504
AU2822   AU        0.426083    0.183328    0.602702     0.007504
AU2823   AU        0.463321    0.149810    0.602108     0.007504
AU2824   AU        0.462685    0.182993    0.635893     0.007504
PD2825   PD        0.501530    0.148122    0.634628     0.005394
AU2826   AU        0.499534    0.183085    0.602143     0.007504
AU2827   AU        0.537833    0.149959    0.601962     0.007504
AU2828   AU        0.536665    0.183305    0.634716     0.007504
PD2829   PD        0.573021    0.147500    0.636037     0.005394
AU2830   AU        0.572591    0.185029    0.600257     0.007504
AU2831   AU        0.608140    0.147891    0.602161     0.007504
PD2832   PD        0.606540    0.183417    0.636942     0.005394
PD2833   PD        0.646765    0.149728    0.632766     0.005394
PD2834   PD        0.643271    0.183655    0.603494     0.005394
PD2835   PD        0.680561    0.151200    0.601720     0.005394
PD2836   PD        0.680053    0.184053    0.632933     0.005394
PD2837   PD        0.712913    0.151314    0.638990     0.005394
PD2838   PD        0.716055    0.183304    0.599855     0.005394
PD2839   PD        0.785123    0.148907    0.568659     0.005394
PD2840   PD        0.748963    0.185137    0.631687     0.005394
PD2841   PD        0.788670    0.184874    0.599790     0.005394
PD2842   PD        0.109525    0.256493    0.636889     0.005394
PD2843   PD        0.143575    0.217351    0.634717     0.005394
AU2844   AU        0.144162    0.256156    0.603741     0.007504
AU2845   AU        0.178903    0.218571    0.603686     0.007504
AU2846   AU        0.179657    0.254975    0.635996     0.007504
AU2847   AU        0.215678    0.218958    0.635938     0.007504
PD2848   PD        0.215064    0.253970    0.603249     0.005394
AU2849   AU        0.247548    0.219948    0.602223     0.007504
AU2850   AU        0.249247    0.255460    0.637415     0.007504
AU2851   AU        0.284184    0.218537    0.636758     0.007504
PD2852   PD        0.285078    0.255905    0.603004     0.005394
AU2853   AU        0.318709    0.219015    0.601360     0.007504
AU2854   AU        0.319001    0.253874    0.635426     0.007504
PD2855   PD        0.357350    0.220585    0.634806     0.005394
AU2856   AU        0.353854    0.255232    0.601887     0.007504
AU2857   AU        0.393718    0.216586    0.603874     0.007504
AU2858   AU        0.392109    0.255109    0.635593     0.007504
AU2859   AU        0.428165    0.218979    0.638219     0.007504
AU2860   AU        0.428235    0.255049    0.602954     0.007504
AU2861   AU        0.462286    0.218953    0.601120     0.007504
AU2862   AU        0.464659    0.253745    0.636931     0.007504
AU2863   AU        0.498879    0.219938    0.635246     0.007504
AU2864   AU        0.501117    0.254804    0.603785     0.007504
AU2865   AU        0.536266    0.218978    0.599086     0.007504
AU2866   AU        0.535332    0.254300    0.636945     0.007504
AU2867   AU        0.571675    0.218965    0.634499     0.007504
AU2868   AU        0.572132    0.254626    0.602827     0.007504
PD2869   PD        0.608665    0.218384    0.601992     0.005394
PD2870   PD        0.608665    0.251682    0.634251     0.005394
PD2871   PD        0.644863    0.217078    0.636628     0.005394
PD2872   PD        0.644259    0.257402    0.602269     0.005394
PD2873   PD        0.677569    0.216297    0.601653     0.005394
PD2874   PD        0.677824    0.254997    0.634507     0.005394
PD2875   PD        0.715606    0.220157    0.633624     0.005394
PD2876   PD        0.716999    0.258986    0.600888     0.005394
PD2877   PD        0.751039    0.220560    0.598388     0.005394
AU2878   AU        0.751506    0.258745    0.634181     0.007504
PD2879   PD        0.780229    0.220540    0.631808     0.005394
PD2880   PD        0.786034    0.256240    0.601532     0.005394
PD2881   PD        0.824714    0.259601    0.633693     0.005394
PD2882   PD        0.076470    0.323831    0.601032     0.005394
AU2883   AU        0.110350    0.289671    0.601265     0.007504
PD2884   PD        0.110340    0.324161    0.636612     0.005394
AU2885   AU        0.143934    0.290995    0.637620     0.007504
PD2886   PD        0.144413    0.326793    0.605100     0.005394
AU2887   AU        0.177693    0.291581    0.604478     0.007504
AU2888   AU        0.178477    0.328186    0.636380     0.007504
AU2889   AU        0.214984    0.289989    0.636241     0.007504
AU2890   AU        0.215295    0.326673    0.602660     0.007504
AU2891   AU        0.249719    0.291345    0.604311     0.007504
AU2892   AU        0.247634    0.325675    0.636248     0.007504
AU2893   AU        0.283968    0.291592    0.635662     0.007504
AU2894   AU        0.284890    0.325656    0.601101     0.007504
AU2895   AU        0.320384    0.290593    0.602845     0.007504
AU2896   AU        0.320567    0.325760    0.636701     0.007504
AU2897   AU        0.356750    0.289655    0.637675     0.007504
AU2898   AU        0.356056    0.327341    0.602652     0.007504
AU2899   AU        0.390903    0.290574    0.600251     0.007504
PD2900   PD        0.390550    0.327125    0.635003     0.005394
AU2901   AU        0.429169    0.289381    0.635017     0.007504
AU2902   AU        0.427993    0.324247    0.602007     0.007504
AU2903   AU        0.463894    0.288557    0.602367     0.007504
AU2904   AU        0.464399    0.326053    0.633812     0.007504
AU2905   AU        0.500162    0.288334    0.638114     0.007504
AU2906   AU        0.500721    0.325168    0.603712     0.007504
AU2907   AU        0.535334    0.289536    0.604628     0.007504
AU2908   AU        0.535866    0.325752    0.634066     0.007504
AU2909   AU        0.571533    0.288194    0.637764     0.007504
AU2910   AU        0.572914    0.325874    0.603176     0.007504
AU2911   AU        0.607345    0.290440    0.599921     0.007504
AU2912   AU        0.609765    0.325112    0.635187     0.007504
PD2913   PD        0.641445    0.287615    0.634658     0.005394
AU2914   AU        0.642977    0.325083    0.600112     0.007504
AU2915   AU        0.679579    0.289836    0.599612     0.007504
AU2916   AU        0.678875    0.324059    0.634563     0.007504
AU2917   AU        0.715912    0.292633    0.636876     0.007504
AU2918   AU        0.716424    0.326410    0.600115     0.007504
AU2919   AU        0.752670    0.292023    0.601490     0.007504
PD2920   PD        0.753139    0.324796    0.633253     0.005394
PD2921   PD        0.787063    0.289357    0.632172     0.005394
AU2922   AU        0.787145    0.326390    0.601319     0.007504
AU2923   AU        0.821231    0.291969    0.600003     0.007504
PD2924   PD        0.821941    0.326321    0.631606     0.005394
PD2925   PD        0.856287    0.327460    0.603175     0.005394
PD2926   PD        0.072437    0.364368    0.636099     0.005394
PD2927   PD        0.074176    0.402376    0.599725     0.005394
PD2928   PD        0.109522    0.358999    0.603411     0.005394
PD2929   PD        0.104901    0.397907    0.637309     0.005394
PD2930   PD        0.145112    0.361693    0.634691     0.005394
PD2931   PD        0.144001    0.396935    0.604354     0.005394
AU2932   AU        0.179648    0.362376    0.603096     0.007504
AU2933   AU        0.177764    0.396658    0.636807     0.007504
AU2934   AU        0.212903    0.361887    0.636242     0.007504
AU2935   AU        0.212880    0.397994    0.603934     0.007504
AU2936   AU        0.250070    0.360802    0.603567     0.007504
AU2937   AU        0.250448    0.396492    0.636337     0.007504
AU2938   AU        0.284588    0.358217    0.634789     0.007504
AU2939   AU        0.286929    0.399099    0.602192     0.007504
AU2940   AU        0.319451    0.361400    0.602399     0.007504
AU2941   AU        0.319063    0.395912    0.635320     0.007504
AU2942   AU        0.355250    0.362057    0.636265     0.007504
AU2943   AU        0.355471    0.398626    0.602441     0.007504
AU2944   AU        0.391811    0.362345    0.603404     0.007504
AU2945   AU        0.391089    0.399205    0.636119     0.007504
AU2946   AU        0.427493    0.363038    0.636772     0.007504
AU2947   AU        0.427938    0.398344    0.602398     0.007504
AU2948   AU        0.462875    0.361610    0.602757     0.007504
AU2949   AU        0.462697    0.396146    0.633586     0.007504
AU2950   AU        0.499902    0.362767    0.636164     0.007504
AU2951   AU        0.502507    0.396542    0.603452     0.007504
AU2952   AU        0.537116    0.361319    0.601841     0.007504
AU2953   AU        0.537539    0.397153    0.636128     0.007504
AU2954   AU        0.574348    0.362825    0.634183     0.007504
AU2955   AU        0.574546    0.397005    0.601980     0.007504
AU2956   AU        0.610694    0.360419    0.602064     0.007504
AU2957   AU        0.608884    0.397287    0.635127     0.007504
AU2958   AU        0.645448    0.360761    0.635423     0.007504
AU2959   AU        0.643312    0.396960    0.603604     0.007504
PD2960   PD        0.680085    0.360709    0.603166     0.005394
AU2961   AU        0.678801    0.395047    0.636605     0.007504
PD2962   PD        0.712564    0.357147    0.635009     0.005394
PD2963   PD        0.715749    0.395930    0.601854     0.005394
AU2964   AU        0.752875    0.360607    0.598937     0.007504
PD2965   PD        0.751687    0.396791    0.635580     0.005394
PD2966   PD        0.786470    0.366251    0.634166     0.005394
PD2967   PD        0.787612    0.401175    0.600886     0.005394
PD2968   PD        0.819701    0.365015    0.601899     0.005394
AU2969   AU        0.820638    0.400296    0.633789     0.007504
PD2970   PD        0.852802    0.362423    0.634425     0.005394
PD2971   PD        0.857315    0.400499    0.604434     0.005394
PD2972   PD        0.074691    0.431330    0.636466     0.005394
PD2973   PD        0.073276    0.470128    0.602497     0.005394
PD2974   PD        0.108400    0.433030    0.602839     0.005394
PD2975   PD        0.106160    0.468590    0.635861     0.005394
AU2976   AU        0.143641    0.432873    0.636580     0.007504
PD2977   PD        0.140195    0.471976    0.604639     0.005394
PD2978   PD        0.177355    0.434311    0.601394     0.005394
PD2979   PD        0.177608    0.471305    0.635209     0.005394
AU2980   AU        0.212745    0.432338    0.635592     0.007504
AU2981   AU        0.213530    0.470182    0.602883     0.007504
AU2982   AU        0.247820    0.432520    0.602330     0.007504
AU2983   AU        0.249439    0.470278    0.635348     0.007504
AU2984   AU        0.284066    0.434103    0.635360     0.007504
AU2985   AU        0.283833    0.470989    0.601996     0.007504
AU2986   AU        0.318793    0.433460    0.604514     0.007504
AU2987   AU        0.319143    0.469098    0.636933     0.007504
AU2988   AU        0.355548    0.435958    0.636190     0.007504
AU2989   AU        0.358051    0.467360    0.604376     0.007504
AU2990   AU        0.394107    0.432470    0.604034     0.007504
AU2991   AU        0.392521    0.467556    0.635539     0.007504
AU2992   AU        0.429099    0.431290    0.637338     0.007504
AU2993   AU        0.428369    0.467834    0.603632     0.007504
AU2994   AU        0.465788    0.430895    0.603027     0.007504
AU2995   AU        0.463770    0.470752    0.635697     0.007504
AU2996   AU        0.500939    0.434565    0.635790     0.007504
AU2997   AU        0.502139    0.470346    0.602443     0.007504
AU2998   AU        0.536584    0.434335    0.600355     0.007504
AU2999   AU        0.538201    0.469460    0.635986     0.007504
AU3000   AU        0.572307    0.433012    0.632593     0.007504
AU3001   AU        0.574549    0.469680    0.602330     0.007504
AU3002   AU        0.610034    0.434211    0.604395     0.007504
AU3003   AU        0.609680    0.469198    0.636652     0.007504
AU3004   AU        0.645935    0.434684    0.635747     0.007504
AU3005   AU        0.644102    0.470287    0.603335     0.007504
PD3006   PD        0.683393    0.431768    0.602217     0.005394
AU3007   AU        0.680010    0.470430    0.635622     0.007504
PD3008   PD        0.717507    0.433580    0.636227     0.005394
AU3009   AU        0.716834    0.470329    0.600742     0.007504
PD3010   PD        0.751804    0.435773    0.600400     0.005394
PD3011   PD        0.751888    0.467816    0.634571     0.005394
AU3012   AU        0.784608    0.433434    0.634268     0.007504
AU3013   AU        0.786811    0.469810    0.601373     0.007504
AU3014   AU        0.822292    0.436016    0.601347     0.007504
PD3015   PD        0.821317    0.470381    0.636769     0.005394
PD3016   PD        0.892417    0.439073    0.602727     0.005394
PD3017   PD        0.854186    0.468512    0.604008     0.005394
PD3018   PD        0.075446    0.505804    0.635916     0.005394
PD3019   PD        0.077463    0.580358    0.635163     0.005394
PD3020   PD        0.108212    0.510207    0.603588     0.005394
PD3021   PD        0.110410    0.541667    0.635032     0.005394
PD3022   PD        0.143221    0.506636    0.638360     0.005394
AU3023   AU        0.145037    0.541204    0.603765     0.007504
PD3024   PD        0.178540    0.505140    0.605102     0.005394
AU3025   AU        0.178477    0.541961    0.637570     0.007504
AU3026   AU        0.214901    0.504446    0.635806     0.007504
AU3027   AU        0.212557    0.541135    0.605226     0.007504
AU3028   AU        0.248768    0.504992    0.602875     0.007504
PD3029   PD        0.250493    0.540132    0.636038     0.005394
AU3030   AU        0.285164    0.505647    0.634929     0.007504
PD3031   PD        0.286071    0.541587    0.603158     0.005394
AU3032   AU        0.323894    0.507100    0.603463     0.007504
AU3033   AU        0.322175    0.541027    0.636917     0.007504
AU3034   AU        0.359562    0.503570    0.637677     0.007504
AU3035   AU        0.358437    0.541590    0.602789     0.007504
AU3036   AU        0.394502    0.505504    0.603567     0.007504
AU3037   AU        0.393212    0.540965    0.633755     0.007504
AU3038   AU        0.428309    0.504900    0.636376     0.007504
AU3039   AU        0.429135    0.543244    0.602432     0.007504
AU3040   AU        0.464163    0.506945    0.603617     0.007504
AU3041   AU        0.463732    0.543229    0.635748     0.007504
AU3042   AU        0.500484    0.508330    0.637033     0.007504
AU3043   AU        0.501305    0.541072    0.603549     0.007504
AU3044   AU        0.536869    0.506008    0.603340     0.007504
AU3045   AU        0.540448    0.542742    0.633056     0.007504
AU3046   AU        0.575804    0.504898    0.633836     0.007504
AU3047   AU        0.573341    0.540779    0.599632     0.007504
AU3048   AU        0.609831    0.506088    0.602446     0.007504
AU3049   AU        0.610176    0.542833    0.635491     0.007504
AU3050   AU        0.644758    0.508120    0.636179     0.007504
AU3051   AU        0.642966    0.542779    0.601896     0.007504
AU3052   AU        0.683195    0.506046    0.601484     0.007504
PD3053   PD        0.680422    0.542690    0.633305     0.005394
AU3054   AU        0.717150    0.504333    0.635207     0.007504
AU3055   AU        0.718960    0.541635    0.602381     0.007504
AU3056   AU        0.752272    0.505895    0.601650     0.007504
PD3057   PD        0.752543    0.540719    0.635016     0.005394
AU3058   AU        0.785419    0.505058    0.633588     0.007504
PD3059   PD        0.786342    0.539797    0.601279     0.005394
PD3060   PD        0.823174    0.502876    0.602188     0.005394
PD3061   PD        0.822614    0.576537    0.665244     0.005394
PD3062   PD        0.858992    0.502709    0.637793     0.005394
PD3063   PD        0.855207    0.543035    0.598169     0.005394
PD3064   PD        0.111478    0.580111    0.603368     0.005394
PD3065   PD        0.105544    0.617247    0.629506     0.005394
AU3066   AU        0.145799    0.578461    0.638653     0.007504
PD3067   PD        0.144299    0.613688    0.603122     0.005394
AU3068   AU        0.178668    0.577125    0.606442     0.007504
PD3069   PD        0.178617    0.616084    0.635942     0.005394
PD3070   PD        0.212899    0.578332    0.636049     0.005394
PD3071   PD        0.215374    0.613488    0.603612     0.005394
PD3072   PD        0.247457    0.578383    0.604289     0.005394
AU3073   AU        0.251827    0.614596    0.638181     0.007504
PD3074   PD        0.285932    0.579678    0.635919     0.005394
AU3075   AU        0.286580    0.614244    0.603962     0.007504
AU3076   AU        0.322620    0.576172    0.603311     0.007504
AU3077   AU        0.320946    0.615353    0.635283     0.007504
AU3078   AU        0.358272    0.577395    0.635367     0.007504
AU3079   AU        0.355936    0.613678    0.604559     0.007504
AU3080   AU        0.392659    0.578814    0.604014     0.007504
AU3081   AU        0.393485    0.612431    0.634644     0.007504
AU3082   AU        0.430816    0.579298    0.635592     0.007504
AU3083   AU        0.426696    0.613536    0.601438     0.007504
AU3084   AU        0.464408    0.579710    0.601047     0.007504
AU3085   AU        0.467069    0.612501    0.636108     0.007504
AU3086   AU        0.502380    0.577297    0.635166     0.007504
AU3087   AU        0.500966    0.613323    0.603751     0.007504
AU3088   AU        0.536437    0.579131    0.602676     0.007504
AU3089   AU        0.538474    0.613497    0.634735     0.007504
AU3090   AU        0.575469    0.577529    0.635813     0.007504
AU3091   AU        0.573449    0.614114    0.601406     0.007504
AU3092   AU        0.610315    0.577789    0.602506     0.007504
AU3093   AU        0.610150    0.611559    0.637482     0.007504
AU3094   AU        0.646467    0.575947    0.634958     0.007504
AU3095   AU        0.646263    0.612266    0.602099     0.007504
AU3096   AU        0.680549    0.576960    0.601304     0.007504
PD3097   PD        0.681185    0.613415    0.635325     0.005394
PD3098   PD        0.716589    0.578438    0.637227     0.005394
AU3099   AU        0.717310    0.610519    0.601787     0.007504
AU3100   AU        0.752006    0.578031    0.602659     0.007504
PD3101   PD        0.752961    0.611859    0.634532     0.005394
PD3102   PD        0.786658    0.577352    0.633570     0.005394
PD3103   PD        0.784579    0.613837    0.600892     0.005394
AU3104   AU        0.821393    0.577274    0.600772     0.007504
PD3105   PD        0.820636    0.611276    0.633291     0.005394
PD3106   PD        0.146339    0.646805    0.637590     0.005394
PD3107   PD        0.075237    0.613596    0.603011     0.005394
AU3108   AU        0.177480    0.651976    0.602550     0.007504
PD3109   PD        0.182337    0.682133    0.636842     0.005394
PD3110   PD        0.216942    0.648725    0.636680     0.005394
PD3111   PD        0.216192    0.682909    0.603622     0.005394
AU3112   AU        0.250652    0.649322    0.603996     0.007504
AU3113   AU        0.251070    0.684797    0.636265     0.007504
AU3114   AU        0.287011    0.650226    0.637050     0.007504
AU3115   AU        0.286895    0.686067    0.605062     0.007504
AU3116   AU        0.323535    0.650876    0.602990     0.007504
AU3117   AU        0.323241    0.685000    0.636576     0.007504
AU3118   AU        0.356730    0.650565    0.636197     0.007504
PD3119   PD        0.358865    0.687406    0.603389     0.005394
AU3120   AU        0.393626    0.649068    0.603107     0.007504
AU3121   AU        0.392670    0.685804    0.635419     0.007504
AU3122   AU        0.427549    0.648223    0.636604     0.007504
PD3123   PD        0.429731    0.683883    0.601412     0.005394
AU3124   AU        0.464900    0.648318    0.602762     0.007504
AU3125   AU        0.467003    0.683570    0.636240     0.007504
AU3126   AU        0.500604    0.648068    0.634693     0.007504
AU3127   AU        0.498958    0.682868    0.601517     0.007504
AU3128   AU        0.538934    0.646546    0.601351     0.007504
AU3129   AU        0.536752    0.680276    0.634575     0.007504
AU3130   AU        0.574854    0.648592    0.633316     0.007504
AU3131   AU        0.573515    0.684303    0.600220     0.007504
PD3132   PD        0.610469    0.646745    0.600067     0.005394
AU3133   AU        0.609138    0.682713    0.633170     0.007504
AU3134   AU        0.643899    0.648690    0.634871     0.007504
AU3135   AU        0.644494    0.684683    0.600099     0.007504
PD3136   PD        0.682534    0.646600    0.602649     0.005394
AU3137   AU        0.678791    0.683105    0.633712     0.007504
PD3138   PD        0.716028    0.649766    0.636504     0.005394
AU3139   AU        0.714805    0.682379    0.601454     0.007504
AU3140   AU        0.749644    0.649311    0.600525     0.007504
PD3141   PD        0.752922    0.688245    0.633020     0.005394
PD3142   PD        0.787319    0.644259    0.634008     0.005394
PD3143   PD        0.789995    0.681261    0.601198     0.005394
PD3144   PD        0.181379    0.721114    0.603333     0.005394
PD3145   PD        0.216659    0.721807    0.638016     0.005394
PD3146   PD        0.218933    0.756399    0.602821     0.005394
PD3147   PD        0.250284    0.720103    0.600994     0.005394
PD3148   PD        0.251923    0.753608    0.636910     0.005394
AU3149   AU        0.287268    0.720186    0.637491     0.007504
PD3150   PD        0.285976    0.753723    0.604373     0.005394
PD3151   PD        0.325183    0.721528    0.604665     0.005394
AU3152   AU        0.323531    0.754403    0.637977     0.007504
AU3153   AU        0.359397    0.720562    0.635686     0.007504
AU3154   AU        0.357548    0.754814    0.604032     0.007504
AU3155   AU        0.393357    0.720699    0.601304     0.007504
AU3156   AU        0.393333    0.753601    0.634361     0.007504
PD3157   PD        0.426009    0.719351    0.636642     0.005394
AU3158   AU        0.429383    0.755708    0.602575     0.007504
PD3159   PD        0.462238    0.718428    0.603898     0.005394
PD3160   PD        0.465156    0.752679    0.636864     0.005394
PD3161   PD        0.502498    0.717859    0.634431     0.005394
PD3162   PD        0.498284    0.754277    0.601679     0.005394
PD3163   PD        0.539197    0.720121    0.599667     0.005394
PD3164   PD        0.536818    0.753303    0.634431     0.005394
PD3165   PD        0.573020    0.716631    0.635738     0.005394
PD3166   PD        0.571730    0.756307    0.601088     0.005394
AU3167   AU        0.610983    0.719053    0.603348     0.007504
PD3168   PD        0.603804    0.758499    0.634793     0.005394
PD3169   PD        0.643144    0.719871    0.635620     0.005394
PD3170   PD        0.644154    0.755869    0.599974     0.005394
PD3171   PD        0.678552    0.718070    0.598931     0.005394
PD3172   PD        0.668061    0.808692    0.671413     0.005394
PD3173   PD        0.713071    0.719037    0.632965     0.005394
PD3174   PD        0.710847    0.752364    0.600696     0.005394
PD3175   PD        0.791034    0.715461    0.567285     0.005394
PD3176   PD        0.290893    0.790906    0.639464     0.005394
PD3177   PD        0.321759    0.789990    0.601747     0.005394
PD3178   PD        0.357313    0.788527    0.635849     0.005394
PD3179   PD        0.358699    0.823380    0.603353     0.005394
AU3180   AU        0.394381    0.788601    0.603642     0.007504
PD3181   PD        0.391750    0.823067    0.635211     0.005394
PD3182   PD        0.429602    0.788805    0.638995     0.005394
PD3183   PD        0.466788    0.863591    0.601348     0.005394
PD3184   PD        0.465232    0.789481    0.601787     0.005394
PD3185   PD        0.494285    0.857344    0.649957     0.005394
PD3186   PD        0.498653    0.792149    0.635881     0.005394
PD3187   PD        0.499622    0.826085    0.598225     0.005394
PD3188   PD        0.534777    0.794494    0.602907     0.005394
PD3189   PD        0.531765    0.828124    0.634702     0.005394
PD3190   PD        0.606988    0.796223    0.660254     0.005394
PD3191   PD        0.573710    0.823016    0.601488     0.005394
PD3192   PD        0.609438    0.789994    0.598679     0.005394
PD3193   PD        0.644566    0.787310    0.632128     0.005394
PD3194   PD        0.285982    0.107993    0.667521     0.005394
PD3195   PD        0.320980    0.116687    0.703046     0.005394
PD3196   PD        0.356855    0.110741    0.667267     0.005394
PD3197   PD        0.394308    0.078179    0.669065     0.005394
AU3198   AU        0.393368    0.112375    0.702369     0.007504
PD3199   PD        0.432189    0.075999    0.700862     0.005394
PD3200   PD        0.429825    0.113772    0.667455     0.005394
PD3201   PD        0.463316    0.078624    0.665116     0.005394
PD3202   PD        0.463772    0.114856    0.701328     0.005394
PD3203   PD        0.498166    0.078797    0.697564     0.005394
PD3204   PD        0.501279    0.113497    0.667527     0.005394
PD3205   PD        0.533549    0.077604    0.664199     0.005394
PD3206   PD        0.536477    0.112562    0.700857     0.005394
PD3207   PD        0.573077    0.111113    0.668095     0.005394
PD3208   PD        0.607575    0.117618    0.706084     0.005394
PD3209   PD        0.641995    0.111566    0.667373     0.005394
PD3210   PD        0.217649    0.183757    0.666076     0.005394
PD3211   PD        0.251373    0.146771    0.665976     0.005394
PD3212   PD        0.251307    0.182824    0.701760     0.005394
AU3213   AU        0.285891    0.148301    0.702109     0.007504
AU3214   AU        0.284111    0.184179    0.668478     0.007504
AU3215   AU        0.320737    0.145356    0.667559     0.007504
PD3216   PD        0.319210    0.182720    0.700831     0.005394
AU3217   AU        0.356349    0.149439    0.702971     0.007504
PD3218   PD        0.354060    0.182460    0.669143     0.005394
AU3219   AU        0.391975    0.147402    0.669573     0.007504
PD3220   PD        0.391089    0.181901    0.702358     0.005394
PD3221   PD        0.427772    0.146201    0.702711     0.005394
AU3222   AU        0.426940    0.182144    0.669195     0.007504
AU3223   AU        0.464182    0.148070    0.667291     0.007504
AU3224   AU        0.464534    0.183065    0.700183     0.007504
PD3225   PD        0.500288    0.150477    0.702821     0.005394
AU3226   AU        0.499120    0.184112    0.668677     0.007504
PD3227   PD        0.537394    0.147737    0.668581     0.005394
AU3228   AU        0.534518    0.184392    0.702419     0.007504
PD3229   PD        0.570260    0.152345    0.702536     0.005394
PD3230   PD        0.570128    0.183450    0.668462     0.005394
PD3231   PD        0.612154    0.147609    0.666765     0.005394
PD3232   PD        0.606071    0.182666    0.702440     0.005394
PD3233   PD        0.644207    0.147587    0.700097     0.005394
PD3234   PD        0.645067    0.184907    0.668875     0.005394
PD3235   PD        0.680097    0.150236    0.662373     0.005394
PD3236   PD        0.679323    0.181480    0.698895     0.005394
PD3237   PD        0.712243    0.184179    0.665140     0.005394
PD3238   PD        0.139905    0.254248    0.665615     0.005394
PD3239   PD        0.179595    0.222739    0.667042     0.005394
PD3240   PD        0.178119    0.256570    0.699420     0.005394
PD3241   PD        0.215868    0.218059    0.699703     0.005394
PD3242   PD        0.215840    0.255768    0.668808     0.005394
PD3243   PD        0.247953    0.218708    0.668774     0.005394
PD3244   PD        0.249538    0.255487    0.701106     0.005394
PD3245   PD        0.283768    0.217652    0.702168     0.005394
AU3246   AU        0.283285    0.256024    0.669097     0.007504
PD3247   PD        0.319770    0.219644    0.668474     0.005394
PD3248   PD        0.321064    0.252990    0.702079     0.005394
PD3249   PD        0.350720    0.219309    0.701641     0.005394
AU3250   AU        0.357512    0.254864    0.669486     0.007504
AU3251   AU        0.392738    0.219264    0.672667     0.007504
AU3252   AU        0.394633    0.254703    0.702624     0.007504
AU3253   AU        0.431193    0.220147    0.703103     0.007504
AU3254   AU        0.431039    0.254112    0.670235     0.007504
AU3255   AU        0.465191    0.217923    0.668949     0.007504
AU3256   AU        0.464376    0.253937    0.704307     0.007504
AU3257   AU        0.499256    0.219286    0.703576     0.007504
AU3258   AU        0.498658    0.253811    0.669863     0.007504
AU3259   AU        0.534012    0.217989    0.667724     0.007504
AU3260   AU        0.533085    0.252603    0.702395     0.007504
AU3261   AU        0.570658    0.218958    0.700789     0.007504
PD3262   PD        0.572211    0.253754    0.670757     0.005394
AU3263   AU        0.607699    0.217881    0.670608     0.007504
AU3264   AU        0.609815    0.253805    0.701574     0.007504
AU3265   AU        0.643215    0.218711    0.701431     0.007504
AU3266   AU        0.644009    0.254059    0.670933     0.007504
PD3267   PD        0.682230    0.219787    0.672665     0.005394
PD3268   PD        0.678020    0.219479    0.732743     0.005394
PD3269   PD        0.719287    0.216151    0.702061     0.005394
PD3270   PD        0.714801    0.254227    0.666059     0.005394
PD3271   PD        0.779273    0.175358    0.673384     0.005394
PD3272   PD        0.784558    0.263887    0.737429     0.005394
PD3273   PD        0.786032    0.254610    0.666577     0.005394
PD3274   PD        0.138417    0.290809    0.698475     0.005394
PD3275   PD        0.143067    0.327065    0.668591     0.005394
PD3276   PD        0.179547    0.291377    0.667661     0.005394
PD3277   PD        0.179902    0.327506    0.700984     0.005394
PD3278   PD        0.215294    0.291214    0.700899     0.005394
AU3279   AU        0.214054    0.324438    0.669423     0.007504
AU3280   AU        0.249156    0.290518    0.669339     0.007504
AU3281   AU        0.250461    0.326406    0.702017     0.007504
AU3282   AU        0.284636    0.291624    0.701163     0.007504
AU3283   AU        0.283662    0.326351    0.669942     0.007504
AU3284   AU        0.319790    0.292366    0.669005     0.007504
AU3285   AU        0.320838    0.326503    0.703627     0.007504
PD3286   PD        0.355575    0.288600    0.701749     0.005394
AU3287   AU        0.355218    0.326057    0.671375     0.007504
AU3288   AU        0.392127    0.291063    0.670061     0.007504
AU3289   AU        0.391975    0.325050    0.702664     0.007504
AU3290   AU        0.429850    0.290505    0.702620     0.007504
AU3291   AU        0.427524    0.324930    0.668745     0.007504
AU3292   AU        0.465230    0.288225    0.670568     0.007504
AU3293   AU        0.463841    0.325267    0.702061     0.007504
AU3294   AU        0.499560    0.288487    0.704040     0.007504
AU3295   AU        0.498723    0.324402    0.669989     0.007504
AU3296   AU        0.535232    0.287778    0.670218     0.007504
AU3297   AU        0.535125    0.324816    0.701777     0.007504
AU3298   AU        0.573321    0.290377    0.701580     0.007504
PD3299   PD        0.570682    0.325958    0.669240     0.005394
AU3300   AU        0.610507    0.289400    0.669520     0.007504
AU3301   AU        0.609797    0.324563    0.702743     0.007504
AU3302   AU        0.642934    0.291380    0.702866     0.007504
AU3303   AU        0.645425    0.325427    0.670197     0.007504
PD3304   PD        0.676864    0.290312    0.668051     0.005394
AU3305   AU        0.680239    0.327248    0.702783     0.007504
PD3306   PD        0.714095    0.288700    0.699134     0.005394
PD3307   PD        0.715510    0.326545    0.669670     0.005394
PD3308   PD        0.749541    0.293761    0.669258     0.005394
PD3309   PD        0.747881    0.327075    0.703475     0.005394
PD3310   PD        0.789241    0.295489    0.699593     0.005394
PD3311   PD        0.788638    0.326938    0.668454     0.005394
PD3312   PD        0.108161    0.362444    0.667211     0.005394
PD3313   PD        0.105327    0.396173    0.699668     0.005394
PD3314   PD        0.144774    0.364579    0.700866     0.005394
AU3315   AU        0.142596    0.396847    0.667866     0.007504
AU3316   AU        0.179625    0.365112    0.669996     0.007504
AU3317   AU        0.181442    0.398979    0.701824     0.007504
AU3318   AU        0.215527    0.361996    0.701773     0.007504
AU3319   AU        0.213775    0.398041    0.668803     0.007504
AU3320   AU        0.245925    0.361448    0.669271     0.007504
AU3321   AU        0.248145    0.397923    0.702775     0.007504
AU3322   AU        0.282819    0.363081    0.701181     0.007504
AU3323   AU        0.284070    0.398466    0.669280     0.007504
AU3324   AU        0.321383    0.362280    0.671144     0.007504
AU3325   AU        0.318432    0.396054    0.704036     0.007504
AU3326   AU        0.357321    0.362650    0.702900     0.007504
AU3327   AU        0.355141    0.398534    0.671390     0.007504
AU3328   AU        0.390062    0.361911    0.668881     0.007504
AU3329   AU        0.392902    0.395807    0.700993     0.007504
AU3330   AU        0.427553    0.360730    0.702846     0.007504
AU3331   AU        0.427670    0.397300    0.670637     0.007504
AU3332   AU        0.464708    0.359911    0.671115     0.007504
AU3333   AU        0.462950    0.397080    0.702939     0.007504
AU3334   AU        0.500074    0.359488    0.702148     0.007504
AU3335   AU        0.502282    0.397979    0.668871     0.007504
AU3336   AU        0.537461    0.361511    0.666535     0.007504
AU3337   AU        0.537659    0.396257    0.698925     0.007504
PD3338   PD        0.570023    0.358629    0.703267     0.005394
AU3339   AU        0.573713    0.396181    0.668517     0.007504
AU3340   AU        0.609661    0.361358    0.667620     0.007504
AU3341   AU        0.607028    0.399247    0.701293     0.007504
AU3342   AU        0.644896    0.361326    0.701584     0.007504
AU3343   AU        0.644787    0.395032    0.669834     0.007504
AU3344   AU        0.680671    0.359525    0.668850     0.007504
AU3345   AU        0.681195    0.396064    0.701117     0.007504
AU3346   AU        0.714601    0.360514    0.702150     0.007504
PD3347   PD        0.716137    0.396962    0.667821     0.005394
PD3348   PD        0.749754    0.360063    0.666242     0.005394
PD3349   PD        0.751403    0.399638    0.697222     0.005394
AU3350   AU        0.784368    0.361366    0.698562     0.007504
PD3351   PD        0.787909    0.398466    0.667815     0.005394
PD3352   PD        0.822338    0.364018    0.665394     0.005394
PD3353   PD        0.820671    0.396637    0.714474     0.005394
PD3354   PD        0.109143    0.433558    0.669485     0.005394
PD3355   PD        0.140905    0.505259    0.764673     0.005394
PD3356   PD        0.140027    0.431564    0.703284     0.005394
PD3357   PD        0.145615    0.468853    0.669605     0.005394
AU3358   AU        0.179415    0.433324    0.668402     0.007504
PD3359   PD        0.182752    0.469356    0.702471     0.005394
AU3360   AU        0.216559    0.434364    0.701104     0.007504
AU3361   AU        0.212998    0.467749    0.667298     0.007504
AU3362   AU        0.248846    0.434603    0.667444     0.007504
AU3363   AU        0.249760    0.469257    0.702581     0.007504
AU3364   AU        0.285601    0.432338    0.702871     0.007504
AU3365   AU        0.284756    0.469169    0.668452     0.007504
AU3366   AU        0.320559    0.432788    0.669768     0.007504
PD3367   PD        0.320264    0.466784    0.702821     0.005394
AU3368   AU        0.356799    0.433181    0.701613     0.007504
AU3369   AU        0.355762    0.466987    0.669974     0.007504
AU3370   AU        0.393379    0.434965    0.669623     0.007504
AU3371   AU        0.394332    0.469383    0.703785     0.007504
AU3372   AU        0.429165    0.433323    0.703078     0.007504
AU3373   AU        0.427963    0.469198    0.669104     0.007504
AU3374   AU        0.464381    0.436219    0.669908     0.007504
AU3375   AU        0.463547    0.471272    0.699765     0.007504
AU3376   AU        0.501003    0.434032    0.700940     0.007504
AU3377   AU        0.501923    0.471451    0.668448     0.007504
AU3378   AU        0.538695    0.435101    0.668286     0.007504
AU3379   AU        0.535983    0.470167    0.699222     0.007504
AU3380   AU        0.574797    0.434237    0.700248     0.007504
AU3381   AU        0.574069    0.470784    0.667897     0.007504
AU3382   AU        0.609351    0.432022    0.667047     0.007504
AU3383   AU        0.609848    0.470143    0.699395     0.007504
AU3384   AU        0.646938    0.434283    0.698846     0.007504
AU3385   AU        0.644959    0.470257    0.667998     0.007504
PD3386   PD        0.683142    0.435011    0.666204     0.005394
AU3387   AU        0.681548    0.472362    0.702518     0.007504
PD3388   PD        0.715472    0.434351    0.700772     0.005394
AU3389   AU        0.716170    0.471280    0.668561     0.007504
PD3390   PD        0.751628    0.434556    0.666404     0.005394
PD3391   PD        0.750765    0.467449    0.701390     0.005394
PD3392   PD        0.783711    0.431992    0.699245     0.005394
PD3393   PD        0.783952    0.469739    0.666396     0.005394
PD3394   PD        0.819035    0.435613    0.666553     0.005394
PD3395   PD        0.820021    0.469030    0.699808     0.005394
PD3396   PD        0.109745    0.502414    0.670761     0.005394
PD3397   PD        0.146104    0.503493    0.701686     0.005394
PD3398   PD        0.145897    0.542143    0.669856     0.005394
PD3399   PD        0.180092    0.505304    0.669334     0.005394
PD3400   PD        0.181128    0.540653    0.700474     0.005394
PD3401   PD        0.214819    0.503136    0.701442     0.005394
PD3402   PD        0.214562    0.542028    0.667920     0.005394
AU3403   AU        0.248993    0.503648    0.669080     0.007504
PD3404   PD        0.249448    0.542955    0.703569     0.005394
PD3405   PD        0.286732    0.504829    0.702870     0.005394
AU3406   AU        0.286203    0.540946    0.669547     0.007504
PD3407   PD        0.321603    0.502031    0.667993     0.005394
AU3408   AU        0.321982    0.543140    0.701225     0.007504
AU3409   AU        0.359158    0.505203    0.701081     0.007504
AU3410   AU        0.358492    0.541377    0.669632     0.007504
AU3411   AU        0.393567    0.506392    0.668642     0.007504
AU3412   AU        0.394476    0.542750    0.702536     0.007504
AU3413   AU        0.428703    0.503498    0.702084     0.007504
AU3414   AU        0.428333    0.541912    0.668637     0.007504
AU3415   AU        0.463323    0.508124    0.669570     0.007504
AU3416   AU        0.465573    0.542369    0.702699     0.007504
AU3417   AU        0.501050    0.504959    0.702952     0.007504
AU3418   AU        0.498731    0.542075    0.670418     0.007504
AU3419   AU        0.537529    0.508155    0.666820     0.007504
PD3420   PD        0.536534    0.541861    0.699139     0.005394
AU3421   AU        0.574908    0.506363    0.701470     0.007504
AU3422   AU        0.575437    0.541598    0.667906     0.007504
AU3423   AU        0.609662    0.505013    0.667290     0.007504
AU3424   AU        0.612031    0.539713    0.701430     0.007504
AU3425   AU        0.646050    0.504945    0.701444     0.007504
AU3426   AU        0.646761    0.541726    0.667941     0.007504
AU3427   AU        0.680980    0.504988    0.668528     0.007504
AU3428   AU        0.679784    0.539894    0.701460     0.007504
AU3429   AU        0.717847    0.507080    0.702126     0.007504
PD3430   PD        0.717459    0.541087    0.669370     0.005394
AU3431   AU        0.751222    0.503254    0.668496     0.007504
PD3432   PD        0.749742    0.542235    0.701091     0.005394
PD3433   PD        0.786293    0.501948    0.699826     0.005394
PD3434   PD        0.787461    0.541255    0.668548     0.005394
PD3435   PD        0.820210    0.506278    0.667892     0.005394
PD3436   PD        0.145092    0.576090    0.704934     0.005394
PD3437   PD        0.146581    0.614267    0.670403     0.005394
PD3438   PD        0.182513    0.578039    0.670557     0.005394
PD3439   PD        0.181050    0.614518    0.703969     0.005394
PD3440   PD        0.214278    0.577292    0.705731     0.005394
PD3441   PD        0.216508    0.616905    0.669331     0.005394
PD3442   PD        0.249897    0.576035    0.670985     0.005394
PD3443   PD        0.251050    0.612429    0.702857     0.005394
AU3444   AU        0.286614    0.578880    0.704120     0.007504
PD3445   PD        0.285225    0.613644    0.669974     0.005394
AU3446   AU        0.322877    0.577990    0.671026     0.007504
PD3447   PD        0.321612    0.614299    0.702779     0.005394
PD3448   PD        0.356583    0.577828    0.704439     0.005394
PD3449   PD        0.358967    0.614808    0.666633     0.005394
AU3450   AU        0.392364    0.578026    0.668222     0.007504
AU3451   AU        0.392697    0.612449    0.702841     0.007504
AU3452   AU        0.430823    0.577877    0.702449     0.007504
AU3453   AU        0.426980    0.613911    0.669582     0.007504
AU3454   AU        0.465303    0.578389    0.666263     0.007504
AU3455   AU        0.464375    0.611680    0.701979     0.007504
AU3456   AU        0.500485    0.579678    0.701507     0.007504
AU3457   AU        0.500001    0.614219    0.668822     0.007504
AU3458   AU        0.536324    0.577953    0.667079     0.007504
AU3459   AU        0.536581    0.611589    0.701500     0.007504
PD3460   PD        0.574884    0.578853    0.698875     0.005394
AU3461   AU        0.574032    0.612577    0.669272     0.007504
AU3462   AU        0.610844    0.576400    0.668807     0.007504
AU3463   AU        0.610512    0.612853    0.702170     0.007504
AU3464   AU        0.645753    0.575593    0.701758     0.007504
AU3465   AU        0.644306    0.613000    0.667593     0.007504
PD3466   PD        0.679720    0.577852    0.666594     0.005394
PD3467   PD        0.679641    0.613418    0.700019     0.005394
PD3468   PD        0.714720    0.576254    0.702647     0.005394
PD3469   PD        0.718364    0.612911    0.668350     0.005394
AU3470   AU        0.751032    0.577638    0.668055     0.007504
PD3471   PD        0.749547    0.609857    0.701686     0.005394
PD3472   PD        0.787076    0.576997    0.701794     0.005394
PD3473   PD        0.784958    0.613280    0.669680     0.005394
PD3474   PD        0.182308    0.648274    0.670524     0.005394
PD3475   PD        0.219249    0.649036    0.702186     0.005394
PD3476   PD        0.215093    0.684016    0.668824     0.005394
AU3477   AU        0.252927    0.651633    0.668304     0.007504
PD3478   PD        0.251727    0.684994    0.702094     0.005394
AU3479   AU        0.286537    0.650697    0.702498     0.007504
AU3480   AU        0.287588    0.686397    0.668546     0.007504
PD3481   PD        0.321288    0.650517    0.671011     0.005394
PD3482   PD        0.320780    0.685324    0.700306     0.005394
PD3483   PD        0.358810    0.649406    0.701673     0.005394
AU3484   AU        0.356127    0.684123    0.670195     0.007504
AU3485   AU        0.392771    0.649210    0.666780     0.007504
AU3486   AU        0.395105    0.681973    0.702589     0.007504
PD3487   PD        0.427264    0.647681    0.704031     0.005394
PD3488   PD        0.431544    0.684310    0.667338     0.005394
AU3489   AU        0.464774    0.647113    0.668521     0.007504
PD3490   PD        0.465746    0.683116    0.700771     0.005394
AU3491   AU        0.499720    0.646447    0.702908     0.007504
PD3492   PD        0.497867    0.684171    0.669671     0.005394
PD3493   PD        0.537775    0.646792    0.667241     0.005394
PD3494   PD        0.539205    0.681978    0.702503     0.005394
PD3495   PD        0.573565    0.649127    0.700973     0.005394
PD3496   PD        0.574296    0.683591    0.669834     0.005394
AU3497   AU        0.606780    0.649670    0.668810     0.007504
PD3498   PD        0.611068    0.684333    0.699821     0.005394
AU3499   AU        0.644652    0.648957    0.701035     0.007504
AU3500   AU        0.642463    0.684198    0.666675     0.007504
AU3501   AU        0.679826    0.648107    0.666621     0.007504
PD3502   PD        0.680598    0.682814    0.699585     0.005394
PD3503   PD        0.714540    0.646816    0.702365     0.005394
PD3504   PD        0.716886    0.686841    0.665974     0.005394
PD3505   PD        0.779805    0.646281    0.711708     0.005394
PD3506   PD        0.251640    0.716816    0.670457     0.005394
PD3507   PD        0.287140    0.724669    0.699051     0.005394
PD3508   PD        0.291237    0.755227    0.668925     0.005394
AU3509   AU        0.322817    0.720299    0.668852     0.007504
PD3510   PD        0.324531    0.753773    0.703869     0.005394
PD3511   PD        0.358407    0.717041    0.701959     0.005394
AU3512   AU        0.358948    0.753156    0.668879     0.007504
AU3513   AU        0.392424    0.719138    0.670419     0.007504
PD3514   PD        0.391623    0.752667    0.700571     0.005394
PD3515   PD        0.430184    0.717820    0.701967     0.005394
PD3516   PD        0.429891    0.752210    0.669602     0.005394
PD3517   PD        0.465875    0.721915    0.669161     0.005394
PD3518   PD        0.465001    0.754644    0.701290     0.005394
PD3519   PD        0.499198    0.721030    0.703572     0.005394
PD3520   PD        0.501825    0.756883    0.670082     0.005394
PD3521   PD        0.536388    0.718789    0.667708     0.005394
PD3522   PD        0.539965    0.757513    0.703782     0.005394
PD3523   PD        0.570820    0.719880    0.699931     0.005394
PD3524   PD        0.570652    0.755275    0.664766     0.005394
PD3525   PD        0.606997    0.719622    0.668950     0.005394
PD3526   PD        0.569429    0.780710    0.789062     0.005394
PD3527   PD        0.645458    0.716114    0.700229     0.005394
PD3528   PD        0.610362    0.809996    0.717574     0.005394
PD3529   PD        0.677402    0.716683    0.665917     0.005394
PD3530   PD        0.393872    0.790087    0.667188     0.005394
PD3531   PD        0.426859    0.785102    0.699068     0.005394
PD3532   PD        0.463447    0.787745    0.667946     0.005394
PD3533   PD        0.461984    0.792865    0.731601     0.005394
PD3534   PD        0.538209    0.788986    0.666377     0.005394
PD3535   PD        0.428903    0.111724    0.732802     0.005394
PD3536   PD        0.498444    0.116493    0.733589     0.005394
PD3537   PD        0.283635    0.181357    0.735004     0.005394
PD3538   PD        0.318322    0.146522    0.734112     0.005394
PD3539   PD        0.359058    0.144301    0.767164     0.005394
PD3540   PD        0.357222    0.183167    0.733900     0.005394
PD3541   PD        0.395122    0.148652    0.736940     0.005394
PD3542   PD        0.392607    0.184725    0.765761     0.005394
PD3543   PD        0.428609    0.145742    0.767576     0.005394
AU3544   AU        0.428609    0.182922    0.734382     0.007504
PD3545   PD        0.463136    0.150188    0.734495     0.005394
PD3546   PD        0.462375    0.185361    0.768644     0.005394
PD3547   PD        0.497508    0.148650    0.765022     0.005394
AU3548   AU        0.497112    0.184261    0.734808     0.007504
PD3549   PD        0.533514    0.151556    0.733956     0.005394
PD3550   PD        0.537924    0.181899    0.767977     0.005394
PD3551   PD        0.572589    0.187224    0.735943     0.005394
PD3552   PD        0.565947    0.117803    0.742859     0.005394
PD3553   PD        0.605058    0.187241    0.767561     0.005394
PD3554   PD        0.643978    0.183367    0.734385     0.005394
PD3555   PD        0.215748    0.256798    0.733254     0.005394
PD3556   PD        0.250200    0.220106    0.732000     0.005394
PD3557   PD        0.250166    0.250856    0.834078     0.005394
PD3558   PD        0.287245    0.218059    0.763065     0.005394
PD3559   PD        0.282876    0.255685    0.734711     0.005394
PD3560   PD        0.319195    0.219385    0.737693     0.005394
AU3561   AU        0.323620    0.254594    0.768193     0.007504
PD3562   PD        0.355487    0.218063    0.767766     0.005394
PD3563   PD        0.358737    0.254300    0.735053     0.005394
AU3564   AU        0.392377    0.221112    0.735373     0.007504
PD3565   PD        0.393944    0.258076    0.769091     0.005394
AU3566   AU        0.427607    0.220117    0.766178     0.007504
AU3567   AU        0.430262    0.257500    0.734668     0.007504
AU3568   AU        0.463577    0.217869    0.735884     0.007504
PD3569   PD        0.463512    0.254654    0.768950     0.005394
PD3570   PD        0.497223    0.215957    0.770182     0.005394
AU3571   AU        0.500091    0.255018    0.736698     0.007504
AU3572   AU        0.535192    0.219241    0.734007     0.007504
PD3573   PD        0.536285    0.260245    0.767313     0.005394
PD3574   PD        0.571748    0.222582    0.768349     0.005394
AU3575   AU        0.571003    0.253249    0.732573     0.007504
AU3576   AU        0.608306    0.221586    0.735707     0.007504
PD3577   PD        0.607423    0.255961    0.765313     0.005394
PD3578   PD        0.642244    0.223842    0.768645     0.005394
AU3579   AU        0.644023    0.254582    0.733343     0.007504
PD3580   PD        0.721955    0.225630    0.819677     0.005394
PD3581   PD        0.680078    0.253026    0.764364     0.005394
PD3582   PD        0.756868    0.223765    0.732806     0.005394
PD3583   PD        0.141455    0.324312    0.735720     0.005394
PD3584   PD        0.210363    0.294761    0.767013     0.005394
PD3585   PD        0.215284    0.328461    0.733966     0.005394
AU3586   AU        0.250648    0.291490    0.734465     0.007504
PD3587   PD        0.251705    0.327646    0.767180     0.005394
PD3588   PD        0.284612    0.287313    0.769621     0.005394
AU3589   AU        0.284616    0.326609    0.734332     0.007504
AU3590   AU        0.318934    0.290840    0.735955     0.007504
AU3591   AU        0.321682    0.327541    0.769281     0.007504
PD3592   PD        0.357003    0.292155    0.767914     0.005394
AU3593   AU        0.356768    0.326862    0.736714     0.007504
AU3594   AU        0.393055    0.290341    0.734886     0.007504
PD3595   PD        0.393614    0.327992    0.769910     0.005394
AU3596   AU        0.428351    0.292779    0.768297     0.007504
AU3597   AU        0.428694    0.326191    0.733918     0.007504
AU3598   AU        0.466174    0.289716    0.736531     0.007504
AU3599   AU        0.461120    0.327048    0.767981     0.007504
PD3600   PD        0.500804    0.290203    0.768002     0.005394
AU3601   AU        0.500147    0.324818    0.735433     0.007504
AU3602   AU        0.535142    0.289031    0.733723     0.007504
AU3603   AU        0.535836    0.324381    0.766441     0.007504
PD3604   PD        0.570582    0.290377    0.765065     0.005394
PD3605   PD        0.572513    0.324380    0.734606     0.005394
PD3606   PD        0.608847    0.291177    0.735315     0.005394
AU3607   AU        0.609582    0.324984    0.768106     0.007504
AU3608   AU        0.642852    0.289244    0.766329     0.007504
AU3609   AU        0.646224    0.325767    0.735181     0.007504
PD3610   PD        0.678863    0.291758    0.733237     0.005394
PD3611   PD        0.680852    0.325988    0.767779     0.005394
PD3612   PD        0.714277    0.288101    0.766569     0.005394
PD3613   PD        0.717847    0.325905    0.736320     0.005394
PD3614   PD        0.748734    0.285670    0.730639     0.005394
PD3615   PD        0.143191    0.400497    0.736961     0.005394
PD3616   PD        0.180148    0.362348    0.733760     0.005394
PD3617   PD        0.179540    0.395874    0.768989     0.005394
PD3618   PD        0.215335    0.363841    0.768315     0.005394
AU3619   AU        0.214987    0.396116    0.734936     0.007504
AU3620   AU        0.250207    0.362871    0.734900     0.007504
AU3621   AU        0.253078    0.396378    0.767119     0.007504
AU3622   AU        0.286701    0.361527    0.767044     0.007504
AU3623   AU        0.284555    0.396472    0.734738     0.007504
AU3624   AU        0.320494    0.362592    0.736246     0.007504
AU3625   AU        0.321844    0.396093    0.766083     0.007504
PD3626   PD        0.357767    0.361937    0.766449     0.005394
AU3627   AU        0.356980    0.399193    0.733713     0.007504
AU3628   AU        0.393104    0.363104    0.735734     0.007504
AU3629   AU        0.395066    0.397766    0.768961     0.007504
AU3630   AU        0.425595    0.360776    0.767790     0.007504
AU3631   AU        0.428261    0.397574    0.734635     0.007504
AU3632   AU        0.463257    0.364496    0.737371     0.007504
AU3633   AU        0.462805    0.399147    0.768825     0.007504
PD3634   PD        0.498707    0.359772    0.768621     0.005394
PD3635   PD        0.501194    0.398638    0.733342     0.005394
AU3636   AU        0.537206    0.360499    0.735370     0.007504
PD3637   PD        0.535641    0.394015    0.768212     0.005394
PD3638   PD        0.571382    0.362374    0.767101     0.005394
PD3639   PD        0.572381    0.398668    0.733679     0.005394
PD3640   PD        0.607745    0.357941    0.735748     0.005394
PD3641   PD        0.608500    0.398037    0.764208     0.005394
PD3642   PD        0.645043    0.361271    0.767775     0.005394
AU3643   AU        0.644741    0.397213    0.732140     0.007504
PD3644   PD        0.680764    0.362388    0.734002     0.005394
PD3645   PD        0.677636    0.400325    0.766930     0.005394
PD3646   PD        0.714809    0.364980    0.766464     0.005394
AU3647   AU        0.715929    0.398185    0.732293     0.007504
PD3648   PD        0.749989    0.364454    0.733637     0.005394
PD3649   PD        0.748836    0.396223    0.767210     0.005394
PD3650   PD        0.788928    0.395473    0.739185     0.005394
PD3651   PD        0.142264    0.467040    0.731784     0.005394
PD3652   PD        0.180439    0.431874    0.735050     0.005394
PD3653   PD        0.178295    0.471203    0.767327     0.005394
AU3654   AU        0.216194    0.430956    0.768187     0.007504
AU3655   AU        0.216489    0.468653    0.735023     0.007504
AU3656   AU        0.250482    0.432601    0.735776     0.007504
PD3657   PD        0.248663    0.466704    0.768457     0.005394
PD3658   PD        0.283743    0.431476    0.769513     0.005394
AU3659   AU        0.285139    0.467416    0.736848     0.007504
AU3660   AU        0.318905    0.433217    0.735649     0.007504
PD3661   PD        0.320891    0.468517    0.767378     0.005394
PD3662   PD        0.354666    0.431858    0.768624     0.005394
AU3663   AU        0.357847    0.470898    0.735967     0.007504
AU3664   AU        0.394320    0.432733    0.735042     0.007504
AU3665   AU        0.395240    0.468252    0.768934     0.007504
AU3666   AU        0.428124    0.432016    0.769611     0.007504
AU3667   AU        0.430536    0.468662    0.734586     0.007504
PD3668   PD        0.465243    0.432617    0.734632     0.005394
PD3669   PD        0.463520    0.469040    0.768076     0.005394
PD3670   PD        0.499873    0.432541    0.766981     0.005394
AU3671   AU        0.501511    0.469380    0.734038     0.007504
PD3672   PD        0.537450    0.436513    0.732551     0.005394
PD3673   PD        0.536570    0.470742    0.769920     0.005394
PD3674   PD        0.570980    0.433738    0.767189     0.005394
PD3675   PD        0.575152    0.469134    0.734119     0.005394
PD3676   PD        0.611115    0.434366    0.733401     0.005394
PD3677   PD        0.607570    0.473698    0.768274     0.005394
PD3678   PD        0.644434    0.434451    0.767311     0.005394
AU3679   AU        0.647596    0.468207    0.734362     0.007504
PD3680   PD        0.682696    0.435651    0.733671     0.005394
AU3681   AU        0.682343    0.469218    0.766041     0.007504
PD3682   PD        0.752896    0.425677    0.799272     0.005394
AU3683   AU        0.716191    0.468516    0.733926     0.007504
AU3684   AU        0.749425    0.432008    0.732399     0.007504
PD3685   PD        0.752314    0.505779    0.798792     0.005394
PD3686   PD        0.785883    0.465293    0.732618     0.005394
PD3687   PD        0.178807    0.507091    0.733003     0.005394
PD3688   PD        0.213408    0.504606    0.767157     0.005394
PD3689   PD        0.213810    0.542956    0.736094     0.005394
AU3690   AU        0.250074    0.504473    0.734339     0.007504
PD3691   PD        0.250788    0.539242    0.765493     0.005394
PD3692   PD        0.285024    0.504882    0.767122     0.005394
AU3693   AU        0.285215    0.540444    0.734826     0.007504
AU3694   AU        0.322641    0.505717    0.734321     0.007504
PD3695   PD        0.321759    0.540167    0.766188     0.005394
PD3696   PD        0.357843    0.506448    0.767668     0.005394
AU3697   AU        0.358488    0.538090    0.735535     0.007504
AU3698   AU        0.392630    0.503911    0.734935     0.007504
AU3699   AU        0.392368    0.540268    0.767581     0.007504
PD3700   PD        0.427198    0.504263    0.765937     0.005394
AU3701   AU        0.428310    0.539773    0.736662     0.007504
AU3702   AU        0.463341    0.505015    0.735792     0.007504
PD3703   PD        0.464453    0.541338    0.767968     0.005394
PD3704   PD        0.500771    0.506638    0.766835     0.005394
AU3705   AU        0.499571    0.541526    0.734452     0.007504
PD3706   PD        0.538211    0.505436    0.735535     0.005394
AU3707   AU        0.535815    0.540916    0.767654     0.007504
PD3708   PD        0.574186    0.508336    0.766664     0.005394
PD3709   PD        0.571584    0.540811    0.733489     0.005394
AU3710   AU        0.610908    0.503374    0.732518     0.007504
PD3711   PD        0.611253    0.539019    0.766014     0.005394
AU3712   AU        0.645755    0.502122    0.765767     0.007504
AU3713   AU        0.645518    0.539284    0.734590     0.007504
AU3714   AU        0.680993    0.504928    0.733295     0.007504
PD3715   PD        0.681695    0.537231    0.766327     0.005394
PD3716   PD        0.715877    0.501875    0.766752     0.005394
PD3717   PD        0.717501    0.542057    0.734282     0.005394
PD3718   PD        0.750064    0.502587    0.733822     0.005394
PD3719   PD        0.179119    0.580366    0.735168     0.005394
PD3720   PD        0.214292    0.579397    0.767558     0.005394
PD3721   PD        0.216056    0.615060    0.735135     0.005394
PD3722   PD        0.250954    0.578694    0.735031     0.005394
PD3723   PD        0.255488    0.612759    0.767918     0.005394
PD3724   PD        0.289960    0.574626    0.769012     0.005394
PD3725   PD        0.288311    0.613606    0.736548     0.005394
PD3726   PD        0.322200    0.577432    0.735086     0.005394
AU3727   AU        0.321842    0.610477    0.766385     0.007504
AU3728   AU        0.358712    0.577305    0.767475     0.007504
AU3729   AU        0.357378    0.615893    0.736007     0.007504
PD3730   PD        0.393928    0.577740    0.735146     0.005394
AU3731   AU        0.393567    0.612811    0.767980     0.007504
PD3732   PD        0.429992    0.576608    0.769064     0.005394
AU3733   AU        0.428994    0.611912    0.737043     0.007504
AU3734   AU        0.464736    0.575628    0.734761     0.007504
AU3735   AU        0.465135    0.609915    0.768087     0.007504
AU3736   AU        0.500375    0.576468    0.768420     0.007504
AU3737   AU        0.500206    0.610040    0.735307     0.007504
PD3738   PD        0.535882    0.577076    0.737547     0.005394
PD3739   PD        0.538629    0.613469    0.769079     0.005394
PD3740   PD        0.571044    0.574352    0.767861     0.005394
PD3741   PD        0.574535    0.613732    0.732338     0.005394
PD3742   PD        0.609542    0.575115    0.733314     0.005394
PD3743   PD        0.607339    0.610727    0.766680     0.005394
PD3744   PD        0.644092    0.573024    0.766237     0.005394
PD3745   PD        0.647103    0.612537    0.733069     0.005394
AU3746   AU        0.678775    0.575495    0.734775     0.007504
PD3747   PD        0.679308    0.574443    0.796749     0.005394
PD3748   PD        0.715890    0.579028    0.765272     0.005394
PD3749   PD        0.712199    0.612766    0.732664     0.005394
PD3750   PD        0.752082    0.576973    0.733275     0.005394
PD3751   PD        0.253309    0.647280    0.734765     0.005394
PD3752   PD        0.289099    0.650259    0.767771     0.005394
AU3753   AU        0.285570    0.685472    0.734422     0.007504
PD3754   PD        0.321380    0.650158    0.735308     0.005394
PD3755   PD        0.322482    0.685957    0.767496     0.005394
PD3756   PD        0.357802    0.649182    0.769466     0.005394
AU3757   AU        0.358211    0.683221    0.734233     0.007504
AU3758   AU        0.393642    0.645769    0.736183     0.007504
PD3759   PD        0.394266    0.683701    0.764643     0.005394
PD3760   PD        0.430877    0.646826    0.766761     0.005394
PD3761   PD        0.430407    0.681562    0.737223     0.005394
AU3762   AU        0.465251    0.645666    0.734297     0.007504
PD3763   PD        0.466130    0.684364    0.768700     0.005394
AU3764   AU        0.499929    0.645308    0.767922     0.007504
PD3765   PD        0.499730    0.684521    0.733691     0.005394
PD3766   PD        0.536313    0.643933    0.734921     0.005394
PD3767   PD        0.536722    0.687730    0.763646     0.005394
PD3768   PD        0.573476    0.648353    0.768535     0.005394
PD3769   PD        0.571693    0.682986    0.734368     0.005394
PD3770   PD        0.607964    0.647874    0.734001     0.005394
PD3771   PD        0.630942    0.671474    0.817647     0.005394
PD3772   PD        0.645766    0.647286    0.764176     0.005394
PD3773   PD        0.643943    0.681428    0.732860     0.005394
PD3774   PD        0.678993    0.648164    0.732937     0.005394
PD3775   PD        0.322923    0.718319    0.732795     0.005394
PD3776   PD        0.397424    0.718997    0.735487     0.005394
PD3777   PD        0.429531    0.716374    0.767071     0.005394
PD3778   PD        0.434582    0.752279    0.735398     0.005394
AU3779   AU        0.464904    0.716688    0.733353     0.007504
PD3780   PD        0.498951    0.720701    0.765600     0.005394
PD3781   PD        0.498821    0.754648    0.730788     0.005394
PD3782   PD        0.536897    0.719756    0.731818     0.005394
PD3783   PD        0.608006    0.714988    0.735778     0.005394
PD3784   PD        0.426706    0.144056    0.836478     0.005394
PD3785   PD        0.500609    0.185849    0.803885     0.005394
PD3786   PD        0.291974    0.253523    0.806487     0.005394
PD3787   PD        0.357530    0.254701    0.801713     0.005394
PD3788   PD        0.393547    0.217135    0.796863     0.005394
PD3789   PD        0.395819    0.251409    0.832301     0.005394
PD3790   PD        0.428475    0.256940    0.798741     0.005394
PD3791   PD        0.459019    0.218447    0.799423     0.005394
PD3792   PD        0.464659    0.257950    0.833253     0.005394
PD3793   PD        0.499572    0.255994    0.799479     0.005394
PD3794   PD        0.536576    0.221396    0.798769     0.005394
PD3795   PD        0.536221    0.252026    0.833172     0.005394
PD3796   PD        0.572860    0.255225    0.801999     0.005394
PD3797   PD        0.644357    0.258207    0.801703     0.005394
AU3798   AU        0.286067    0.326046    0.798355     0.007504
AU3799   AU        0.322084    0.291835    0.800814     0.007504
AU3800   AU        0.321354    0.326707    0.830790     0.007504
PD3801   PD        0.355872    0.295615    0.834207     0.005394
AU3802   AU        0.356878    0.327173    0.801703     0.007504
PD3803   PD        0.391348    0.293293    0.802180     0.005394
AU3804   AU        0.393788    0.329222    0.833077     0.007504
PD3805   PD        0.427139    0.290289    0.832528     0.005394
PD3806   PD        0.427615    0.327455    0.801195     0.005394
AU3807   AU        0.464654    0.291137    0.800546     0.007504
PD3808   PD        0.463181    0.326096    0.830507     0.005394
PD3809   PD        0.500798    0.291582    0.834047     0.005394
PD3810   PD        0.496796    0.326730    0.802332     0.005394
PD3811   PD        0.533855    0.292342    0.801099     0.005394
PD3812   PD        0.538062    0.324033    0.831307     0.005394
PD3813   PD        0.572227    0.291217    0.831950     0.005394
AU3814   AU        0.572363    0.326816    0.799443     0.007504
PD3815   PD        0.608298    0.291553    0.797602     0.005394
PD3816   PD        0.605236    0.326312    0.832115     0.005394
PD3817   PD        0.641536    0.325660    0.800547     0.005394
PD3818   PD        0.215592    0.397780    0.800622     0.005394
AU3819   AU        0.251862    0.362620    0.799983     0.007504
PD3820   PD        0.284465    0.360363    0.831064     0.005394
AU3821   AU        0.286684    0.394397    0.799811     0.007504
PD3822   PD        0.321496    0.361469    0.801620     0.005394
PD3823   PD        0.323303    0.396572    0.832145     0.005394
AU3824   AU        0.356089    0.361666    0.833451     0.007504
AU3825   AU        0.357619    0.396172    0.798960     0.007504
PD3826   PD        0.393048    0.361124    0.801292     0.005394
PD3827   PD        0.391167    0.394787    0.831489     0.005394
PD3828   PD        0.430689    0.362346    0.834470     0.005394
AU3829   AU        0.427118    0.397629    0.802633     0.007504
AU3830   AU        0.461074    0.362154    0.800524     0.007504
AU3831   AU        0.465416    0.395128    0.835063     0.007504
PD3832   PD        0.499875    0.361439    0.832657     0.005394
PD3833   PD        0.500947    0.395974    0.800515     0.005394
PD3834   PD        0.536506    0.357727    0.802162     0.005394
PD3835   PD        0.536253    0.395211    0.833117     0.005394
PD3836   PD        0.575553    0.361727    0.834385     0.005394
PD3837   PD        0.572956    0.395899    0.799087     0.005394
PD3838   PD        0.608191    0.359773    0.799103     0.005394
PD3839   PD        0.605332    0.398796    0.832047     0.005394
PD3840   PD        0.722383    0.360124    0.833263     0.005394
PD3841   PD        0.647871    0.400608    0.803511     0.005394
PD3842   PD        0.675255    0.361889    0.798319     0.005394
PD3843   PD        0.712968    0.398315    0.801507     0.005394
PD3844   PD        0.215646    0.465647    0.799934     0.005394
PD3845   PD        0.251498    0.429775    0.799900     0.005394
PD3846   PD        0.285337    0.429766    0.832122     0.005394
PD3847   PD        0.283157    0.464390    0.798363     0.005394
AU3848   AU        0.320006    0.430429    0.800171     0.007504
PD3849   PD        0.323876    0.469295    0.829924     0.005394
PD3850   PD        0.358114    0.431834    0.831859     0.005394
PD3851   PD        0.358926    0.470083    0.798729     0.005394
PD3852   PD        0.391888    0.432559    0.799471     0.005394
PD3853   PD        0.389523    0.465946    0.836746     0.005394
PD3854   PD        0.426831    0.431855    0.835051     0.005394
PD3855   PD        0.426828    0.466317    0.800881     0.005394
PD3856   PD        0.461891    0.433916    0.803292     0.005394
PD3857   PD        0.463944    0.468428    0.833421     0.005394
AU3858   AU        0.500020    0.432559    0.833977     0.007504
PD3859   PD        0.501773    0.467808    0.800846     0.005394
PD3860   PD        0.535765    0.430722    0.798651     0.005394
PD3861   PD        0.536613    0.466839    0.833847     0.005394
PD3862   PD        0.568582    0.435207    0.832240     0.005394
PD3863   PD        0.574183    0.471657    0.801727     0.005394
PD3864   PD        0.607993    0.430670    0.796903     0.005394
PD3865   PD        0.612430    0.468684    0.830596     0.005394
PD3866   PD        0.639525    0.360838    0.834041     0.005394
PD3867   PD        0.642866    0.468628    0.800449     0.005394
PD3868   PD        0.681413    0.436504    0.799339     0.005394
PD3869   PD        0.726217    0.463900    0.795384     0.005394
PD3870   PD        0.252150    0.503456    0.799953     0.005394
PD3871   PD        0.291238    0.506374    0.835037     0.005394
PD3872   PD        0.285025    0.539373    0.797464     0.005394
PD3873   PD        0.320987    0.504196    0.799131     0.005394
PD3874   PD        0.323269    0.539715    0.836855     0.005394
PD3875   PD        0.357678    0.503205    0.831196     0.005394
PD3876   PD        0.358310    0.539942    0.799945     0.005394
PD3877   PD        0.394637    0.505843    0.798667     0.005394
PD3878   PD        0.392053    0.536194    0.831425     0.005394
PD3879   PD        0.428345    0.503953    0.830777     0.005394
PD3880   PD        0.427572    0.542004    0.800563     0.005394
PD3881   PD        0.465217    0.504006    0.796623     0.005394
PD3882   PD        0.464957    0.538694    0.833301     0.005394
PD3883   PD        0.499562    0.502965    0.832253     0.005394
AU3884   AU        0.500511    0.540838    0.799747     0.007504
PD3885   PD        0.537729    0.506042    0.800348     0.005394
PD3886   PD        0.536465    0.541339    0.831101     0.005394
PD3887   PD        0.568780    0.472761    0.865209     0.005394
PD3888   PD        0.574083    0.542945    0.803981     0.005394
PD3889   PD        0.610873    0.505850    0.801878     0.005394
PD3890   PD        0.572192    0.541352    0.864279     0.005394
PD3891   PD        0.645478    0.503949    0.830696     0.005394
PD3892   PD        0.646942    0.540116    0.798617     0.005394
PD3893   PD        0.678985    0.503553    0.797629     0.005394
PD3894   PD        0.324751    0.651396    0.800156     0.005394
PD3895   PD        0.322296    0.574898    0.799799     0.005394
PD3896   PD        0.357901    0.577404    0.832326     0.005394
PD3897   PD        0.355933    0.612220    0.800245     0.005394
PD3898   PD        0.392877    0.579445    0.800165     0.005394
PD3899   PD        0.394276    0.615072    0.833911     0.005394
PD3900   PD        0.429404    0.578566    0.835287     0.005394
PD3901   PD        0.431994    0.613799    0.801888     0.005394
PD3902   PD        0.464562    0.575859    0.801755     0.005394
PD3903   PD        0.468772    0.611407    0.831827     0.005394
PD3904   PD        0.501490    0.574803    0.832278     0.005394
PD3905   PD        0.500688    0.611775    0.797728     0.005394
AU3906   AU        0.537306    0.577669    0.801489     0.007504
PD3907   PD        0.514391    0.624237    0.872630     0.005394
PD3908   PD        0.572349    0.580809    0.834340     0.005394
PD3909   PD        0.573672    0.611863    0.800574     0.005394
PD3910   PD        0.609281    0.574000    0.797548     0.005394
PD3911   PD        0.646554    0.571830    0.832337     0.005394
PD3912   PD        0.398812    0.649013    0.801056     0.005394
PD3913   PD        0.433266    0.681143    0.800459     0.005394
AU3914   AU        0.465873    0.647376    0.800747     0.007504
PD3915   PD        0.501724    0.685973    0.799880     0.005394
PD3916   PD        0.532986    0.649722    0.799317     0.005394
PD3917   PD        0.425201    0.395962    0.865494     0.005394
PD3918   PD        0.465667    0.361784    0.868241     0.005394
PD3919   PD        0.497222    0.399877    0.867686     0.005394
PD3920   PD        0.396075    0.434443    0.872311     0.005394
PD3921   PD        0.426952    0.471298    0.865035     0.005394
PD3922   PD        0.490474    0.424043    0.928735     0.005394
PD3923   PD        0.502818    0.467847    0.865811     0.005394
PD3924   PD        0.533919    0.430617    0.864925     0.005394
PD3925   PD        0.464194    0.503455    0.866534     0.005394
