data_00001
_audit_creation_method   'DISCUS'

_data_chemical_name_common 'Au.cell: Pearson 85'

_cell_length_a             61.1835
_cell_length_b             57.1046
_cell_length_c             61.1835
_cell_angle_alpha     90.0000
_cell_angle_beta      90.0000
_cell_angle_gamma     90.0000

_symmetry_space_group_name_H-M   'P1              '

loop_
_atom_site_label
_atom_site_symbol
_atom_site_fract_x
_atom_site_fract_y
_atom_site_fract_z
_atom_site_u_iso_or_equiv
PD1   PD        0.366233    0.264978    0.098292     0.005394
PD2   PD        0.435761    0.263912    0.098606     0.005394
PD3   PD        0.498123    0.266736    0.099724     0.005394
PD4   PD        0.296671    0.340387    0.102623     0.005394
PD5   PD        0.358420    0.262701    0.038923     0.005394
PD6   PD        0.367373    0.334778    0.099925     0.005394
PD7   PD        0.407990    0.310108    0.078436     0.005394
PD8   PD        0.417106    0.357206    0.071514     0.005394
PD9   PD        0.467379    0.301675    0.100522     0.005394
PD10   PD        0.502012    0.338859    0.099270     0.005394
AU11   AU        0.533365    0.302086    0.101117     0.007504
PD12   PD        0.566656    0.339436    0.101014     0.005394
PD13   PD        0.264442    0.374956    0.101168     0.005394
PD14   PD        0.292081    0.414445    0.102173     0.005394
PD15   PD        0.326208    0.381482    0.098357     0.005394
PD16   PD        0.360667    0.415749    0.099878     0.005394
PD17   PD        0.386904    0.382755    0.096397     0.005394
PD18   PD        0.408450    0.404784    0.062951     0.005394
PD19   PD        0.467360    0.334482    0.066317     0.005394
PD20   PD        0.440587    0.411345    0.095497     0.005394
PD21   PD        0.470054    0.370475    0.098771     0.005394
PD22   PD        0.428334    0.450296    0.000667     0.005394
PD23   PD        0.501457    0.407056    0.097385     0.005394
PD24   PD        0.532517    0.374198    0.100765     0.005394
PD25   PD        0.568064    0.410805    0.097288     0.005394
PD26   PD        0.600886    0.374503    0.097146     0.005394
PD27   PD        0.292122    0.451108    0.063720     0.005394
AU28   AU        0.295670    0.484791    0.098675     0.007504
PD29   PD        0.325948    0.449999    0.099396     0.005394
PD30   PD        0.360655    0.453745    0.064282     0.005394
AU31   AU        0.360060    0.487739    0.098023     0.007504
PD32   PD        0.391095    0.451850    0.097378     0.005394
PD33   PD        0.391418    0.487770    0.066585     0.005394
PD34   PD        0.423906    0.451128    0.063394     0.005394
PD35   PD        0.425683    0.488628    0.099566     0.005394
PD36   PD        0.454680    0.449882    0.095670     0.005394
PD37   PD        0.458512    0.484446    0.063880     0.005394
PD38   PD        0.535028    0.449935    0.029795     0.005394
PD39   PD        0.488277    0.482726    0.101437     0.005394
PD40   PD        0.536228    0.444798    0.099522     0.005394
PD41   PD        0.564753    0.483247    0.101978     0.005394
PD42   PD        0.598562    0.449575    0.101348     0.005394
PD43   PD        0.260984    0.518727    0.099341     0.005394
PD44   PD        0.293248    0.551124    0.099385     0.005394
PD45   PD        0.329348    0.520158    0.098774     0.005394
PD46   PD        0.362357    0.557386    0.101736     0.005394
PD47   PD        0.394296    0.520967    0.099287     0.005394
PD48   PD        0.424256    0.523314    0.064121     0.005394
PD49   PD        0.425736    0.556879    0.098973     0.005394
PD50   PD        0.460698    0.519127    0.100494     0.005394
PD51   PD        0.500855    0.552690    0.097349     0.005394
PD52   PD        0.535890    0.522295    0.093877     0.005394
PD53   PD        0.564589    0.555388    0.103185     0.005394
PD54   PD        0.633559    0.558210    0.103141     0.005394
PD55   PD        0.327682    0.595016    0.099270     0.005394
PD56   PD        0.362705    0.626129    0.100413     0.005394
PD57   PD        0.396383    0.591252    0.099117     0.005394
PD58   PD        0.430862    0.631419    0.099783     0.005394
PD59   PD        0.462414    0.591537    0.098760     0.005394
PD60   PD        0.487655    0.631367    0.094448     0.005394
PD61   PD        0.525235    0.632813    0.070911     0.005394
PD62   PD        0.328034    0.162180    0.099070     0.005394
PD63   PD        0.360341    0.196885    0.164810     0.005394
PD64   PD        0.397772    0.162534    0.165580     0.005394
PD65   PD        0.395039    0.196422    0.133294     0.005394
PD66   PD        0.430672    0.194977    0.165677     0.005394
PD67   PD        0.468290    0.160943    0.163602     0.005394
PD68   PD        0.465510    0.198050    0.129920     0.005394
PD69   PD        0.499686    0.197110    0.166159     0.005394
PD70   PD        0.563685    0.198030    0.168704     0.005394
PD71   PD        0.228252    0.269939    0.164376     0.005394
PD72   PD        0.263519    0.233525    0.166440     0.005394
PD73   PD        0.257403    0.270482    0.132928     0.005394
AU74   AU        0.294649    0.267249    0.167086     0.007504
PD75   PD        0.325503    0.233611    0.166177     0.005394
PD76   PD        0.327490    0.263068    0.137241     0.005394
PD77   PD        0.363690    0.230870    0.134515     0.005394
PD78   PD        0.363124    0.266901    0.164542     0.005394
PD79   PD        0.395071    0.233401    0.167240     0.005394
PD80   PD        0.397844    0.265120    0.134928     0.005394
PD81   PD        0.431107    0.231069    0.131617     0.005394
PD82   PD        0.430198    0.268064    0.165398     0.005394
PD83   PD        0.462780    0.230462    0.166761     0.005394
AU84   AU        0.466704    0.264766    0.131587     0.007504
PD85   PD        0.497604    0.230561    0.132573     0.005394
PD86   PD        0.497782    0.267037    0.166638     0.005394
PD87   PD        0.530806    0.235617    0.168185     0.005394
PD88   PD        0.531612    0.265858    0.134049     0.005394
PD89   PD        0.563865    0.267643    0.167377     0.005394
PD90   PD        0.599337    0.235964    0.169194     0.005394
PD91   PD        0.599297    0.222993    0.099644     0.005394
PD92   PD        0.629252    0.269400    0.168321     0.005394
PD93   PD        0.195298    0.307927    0.163906     0.005394
AU94   AU        0.230607    0.341228    0.164709     0.007504
PD95   PD        0.262810    0.303569    0.166941     0.005394
PD96   PD        0.261781    0.339555    0.133024     0.005394
PD97   PD        0.296536    0.303654    0.131613     0.005394
PD98   PD        0.296861    0.339970    0.166088     0.005394
PD99   PD        0.327200    0.300497    0.165488     0.005394
PD100   PD        0.330566    0.340061    0.133778     0.005394
PD101   PD        0.359507    0.301429    0.130118     0.005394
PD102   PD        0.361119    0.337107    0.163166     0.005394
PD103   PD        0.394960    0.298894    0.165760     0.005394
PD104   PD        0.397484    0.349184    0.129504     0.005394
PD105   PD        0.433980    0.297014    0.129623     0.005394
PD106   PD        0.431343    0.335424    0.165606     0.005394
PD107   PD        0.466567    0.302264    0.165196     0.005394
PD108   PD        0.467073    0.336797    0.129712     0.005394
PD109   PD        0.498804    0.301158    0.130561     0.005394
PD110   PD        0.497402    0.337592    0.164610     0.005394
PD111   PD        0.531268    0.303334    0.165105     0.005394
PD112   PD        0.533571    0.336581    0.133109     0.005394
PD113   PD        0.566047    0.302344    0.136208     0.005394
AU114   AU        0.565397    0.341839    0.164463     0.007504
PD115   PD        0.596909    0.306089    0.167753     0.005394
PD116   PD        0.597145    0.341434    0.131501     0.005394
PD117   PD        0.629907    0.340616    0.167719     0.005394
PD118   PD        0.667865    0.309195    0.164909     0.005394
PD119   PD        0.163664    0.411188    0.168070     0.005394
PD120   PD        0.197274    0.377015    0.165120     0.005394
PD121   PD        0.195344    0.408968    0.131813     0.005394
PD122   PD        0.231492    0.378133    0.131586     0.005394
AU123   AU        0.229359    0.410292    0.163776     0.007504
PD124   PD        0.263797    0.375160    0.164822     0.005394
PD125   PD        0.261340    0.410116    0.133396     0.005394
PD126   PD        0.299642    0.374101    0.134418     0.005394
PD127   PD        0.295291    0.410887    0.163280     0.005394
PD128   PD        0.330113    0.374565    0.168254     0.005394
PD129   PD        0.327448    0.415395    0.130940     0.005394
PD130   PD        0.359359    0.376854    0.131850     0.005394
PD131   PD        0.357637    0.412464    0.162229     0.005394
PD132   PD        0.391222    0.382347    0.161977     0.005394
PD133   PD        0.387993    0.414843    0.128706     0.005394
PD134   PD        0.436050    0.371017    0.128169     0.005394
PD135   PD        0.439315    0.410136    0.163948     0.005394
PD136   PD        0.464293    0.368848    0.162757     0.005394
PD137   PD        0.470852    0.411082    0.131485     0.005394
PD138   PD        0.500847    0.374339    0.131454     0.005394
PD139   PD        0.500077    0.412549    0.165201     0.005394
PD140   PD        0.533121    0.372477    0.165866     0.005394
PD141   PD        0.532909    0.408192    0.131069     0.005394
AU142   AU        0.566417    0.376182    0.131056     0.007504
PD143   PD        0.565181    0.410560    0.164235     0.005394
PD144   PD        0.600388    0.376134    0.165764     0.005394
AU145   AU        0.598518    0.412214    0.132610     0.007504
PD146   PD        0.629453    0.377466    0.132773     0.005394
PD147   PD        0.631219    0.410839    0.166007     0.005394
AU148   AU        0.663756    0.378049    0.166437     0.007504
PD149   PD        0.663655    0.413516    0.128912     0.005394
PD150   PD        0.697771    0.410989    0.163267     0.005394
PD151   PD        0.161811    0.483122    0.164254     0.005394
AU152   AU        0.196282    0.444741    0.165546     0.007504
PD153   PD        0.195840    0.480628    0.132882     0.005394
PD154   PD        0.228735    0.446370    0.132510     0.005394
PD155   PD        0.228614    0.481804    0.163504     0.005394
AU156   AU        0.263698    0.445770    0.164569     0.007504
AU157   AU        0.263293    0.484720    0.133054     0.007504
AU158   AU        0.295786    0.449631    0.133659     0.007504
PD159   PD        0.297115    0.486061    0.163543     0.005394
AU160   AU        0.327730    0.449748    0.164856     0.007504
AU161   AU        0.328443    0.485071    0.131288     0.007504
AU162   AU        0.358422    0.450646    0.128948     0.007504
AU163   AU        0.359899    0.485369    0.163635     0.007504
AU164   AU        0.391518    0.449246    0.163060     0.007504
AU165   AU        0.392970    0.485075    0.129659     0.007504
PD166   PD        0.425707    0.452969    0.134369     0.005394
PD167   PD        0.422974    0.483582    0.163603     0.005394
PD168   PD        0.467865    0.446780    0.166465     0.005394
PD169   PD        0.461370    0.484940    0.133717     0.005394
PD170   PD        0.502356    0.444528    0.129664     0.005394
PD171   PD        0.497624    0.482298    0.165264     0.005394
PD172   PD        0.531966    0.447062    0.164312     0.005394
PD173   PD        0.531747    0.483322    0.135005     0.005394
PD174   PD        0.564046    0.449647    0.133292     0.005394
PD175   PD        0.565770    0.483302    0.165205     0.005394
PD176   PD        0.599930    0.446752    0.168612     0.005394
AU177   AU        0.599572    0.485623    0.132236     0.007504
AU178   AU        0.628463    0.448170    0.134467     0.007504
PD179   PD        0.628483    0.482816    0.166123     0.005394
PD180   PD        0.663524    0.446541    0.167078     0.005394
PD181   PD        0.629970    0.483552    0.094196     0.005394
PD182   PD        0.695724    0.483089    0.162487     0.005394
PD183   PD        0.161583    0.555719    0.166002     0.005394
PD184   PD        0.230744    0.519279    0.132705     0.005394
PD185   PD        0.229246    0.558648    0.162685     0.005394
AU186   AU        0.262995    0.521733    0.163277     0.007504
PD187   PD        0.265338    0.557990    0.130286     0.005394
AU188   AU        0.296390    0.519253    0.132085     0.007504
AU189   AU        0.295824    0.554228    0.163948     0.007504
AU190   AU        0.328215    0.520530    0.164265     0.007504
PD191   PD        0.328213    0.556007    0.130724     0.005394
PD192   PD        0.361186    0.519167    0.132122     0.005394
PD193   PD        0.361408    0.555558    0.164391     0.005394
PD194   PD        0.393385    0.519879    0.162941     0.005394
AU195   AU        0.396754    0.555535    0.133008     0.007504
PD196   PD        0.426451    0.518388    0.132680     0.005394
AU197   AU        0.428835    0.556598    0.166642     0.007504
PD198   PD        0.461292    0.521396    0.165542     0.005394
PD199   PD        0.464402    0.554492    0.130882     0.005394
PD200   PD        0.498079    0.516781    0.132345     0.005394
PD201   PD        0.497503    0.553016    0.162366     0.005394
AU202   AU        0.530987    0.519661    0.165786     0.007504
PD203   PD        0.531185    0.553474    0.131987     0.005394
PD204   PD        0.565380    0.516499    0.134151     0.005394
PD205   PD        0.563435    0.555850    0.165142     0.005394
AU206   AU        0.597633    0.520657    0.165179     0.007504
PD207   PD        0.598616    0.552803    0.131866     0.005394
PD208   PD        0.631081    0.519575    0.130540     0.005394
AU209   AU        0.630748    0.556293    0.167112     0.007504
PD210   PD        0.660422    0.516440    0.165239     0.005394
PD211   PD        0.158674    0.593846    0.136893     0.005394
PD212   PD        0.231312    0.625030    0.165501     0.005394
PD213   PD        0.262741    0.591094    0.165167     0.005394
PD214   PD        0.192742    0.710044    0.138068     0.005394
PD215   PD        0.296762    0.588952    0.133733     0.005394
PD216   PD        0.294443    0.628008    0.167677     0.005394
AU217   AU        0.330585    0.591028    0.165400     0.007504
PD218   PD        0.330339    0.628745    0.134548     0.005394
PD219   PD        0.362479    0.592901    0.133199     0.005394
AU220   AU        0.364806    0.626647    0.166494     0.007504
AU221   AU        0.397654    0.591260    0.163283     0.007504
AU222   AU        0.394324    0.625615    0.132031     0.007504
PD223   PD        0.429696    0.592215    0.129538     0.005394
PD224   PD        0.429421    0.626844    0.165095     0.005394
PD225   PD        0.458891    0.590979    0.163441     0.005394
PD226   PD        0.463668    0.630155    0.132747     0.005394
PD227   PD        0.500455    0.587217    0.131187     0.005394
PD228   PD        0.497603    0.631141    0.163980     0.005394
PD229   PD        0.532717    0.591946    0.166036     0.005394
PD230   PD        0.530201    0.625885    0.133731     0.005394
PD231   PD        0.563063    0.592733    0.135872     0.005394
PD232   PD        0.567090    0.628714    0.164116     0.005394
AU233   AU        0.597654    0.591689    0.163459     0.007504
PD234   PD        0.599620    0.629805    0.133479     0.005394
PD235   PD        0.631934    0.625710    0.168220     0.005394
PD236   PD        0.666006    0.590789    0.168214     0.005394
PD237   PD        0.261232    0.663773    0.166674     0.005394
PD238   PD        0.295290    0.697435    0.165103     0.005394
PD239   PD        0.328016    0.660668    0.167229     0.005394
PD240   PD        0.363762    0.660989    0.131545     0.005394
PD241   PD        0.362874    0.697658    0.167977     0.005394
PD242   PD        0.395518    0.663262    0.164130     0.005394
PD243   PD        0.397775    0.698277    0.135477     0.005394
PD244   PD        0.429546    0.662465    0.134764     0.005394
AU245   AU        0.428745    0.696942    0.166620     0.007504
PD246   PD        0.463193    0.663370    0.164406     0.005394
PD247   PD        0.459242    0.697649    0.130074     0.005394
PD248   PD        0.495324    0.663776    0.132020     0.005394
PD249   PD        0.496968    0.699578    0.166002     0.005394
PD250   PD        0.529043    0.663675    0.167263     0.005394
PD251   PD        0.563056    0.699150    0.167698     0.005394
PD252   PD        0.599779    0.662258    0.165928     0.005394
PD253   PD        0.396839    0.734434    0.170870     0.005394
PD254   PD        0.462136    0.732125    0.168525     0.005394
PD255   PD        0.292249    0.124742    0.230184     0.005394
PD256   PD        0.362282    0.127157    0.232285     0.005394
PD257   PD        0.396488    0.092178    0.236634     0.005394
PD258   PD        0.398077    0.126730    0.198533     0.005394
PD259   PD        0.428394    0.127041    0.232460     0.005394
PD260   PD        0.461539    0.091825    0.227862     0.005394
PD261   PD        0.464194    0.125471    0.201351     0.005394
PD262   PD        0.498380    0.123283    0.228491     0.005394
PD263   PD        0.561426    0.127663    0.234710     0.005394
PD264   PD        0.229075    0.198686    0.231940     0.005394
PD265   PD        0.262664    0.162618    0.233529     0.005394
PD266   PD        0.262878    0.199372    0.200869     0.005394
PD267   PD        0.285455    0.127900    0.193063     0.005394
PD268   PD        0.296024    0.198520    0.232153     0.005394
PD269   PD        0.329478    0.161001    0.233328     0.005394
PD270   PD        0.330286    0.199705    0.198708     0.005394
PD271   PD        0.365619    0.158672    0.199129     0.005394
AU272   AU        0.362853    0.196088    0.230963     0.007504
PD273   PD        0.395431    0.160901    0.235014     0.005394
PD274   PD        0.396481    0.198195    0.197740     0.005394
PD275   PD        0.431470    0.161437    0.197538     0.005394
PD276   PD        0.426742    0.196747    0.230897     0.005394
PD277   PD        0.463924    0.158988    0.232715     0.005394
PD278   PD        0.462392    0.196517    0.201452     0.005394
PD279   PD        0.497059    0.161611    0.196557     0.005394
PD280   PD        0.496489    0.196243    0.229475     0.005394
AU281   AU        0.527600    0.160597    0.231295     0.007504
PD282   PD        0.532631    0.194419    0.199218     0.005394
PD283   PD        0.562779    0.159750    0.200198     0.005394
PD284   PD        0.563709    0.194636    0.233259     0.005394
AU285   AU        0.596276    0.159520    0.235285     0.007504
PD286   PD        0.594991    0.197919    0.197117     0.005394
PD287   PD        0.624514    0.195090    0.230988     0.005394
PD288   PD        0.164349    0.266155    0.232875     0.005394
PD289   PD        0.198323    0.232577    0.232738     0.005394
PD290   PD        0.195288    0.266926    0.198789     0.005394
PD291   PD        0.232457    0.234727    0.197328     0.005394
PD292   PD        0.228699    0.267143    0.232730     0.005394
AU293   AU        0.263402    0.233751    0.231889     0.007504
PD294   PD        0.264153    0.268927    0.199004     0.005394
AU295   AU        0.296037    0.232758    0.200467     0.007504
AU296   AU        0.295439    0.270018    0.231793     0.007504
PD297   PD        0.328710    0.234004    0.231587     0.005394
PD298   PD        0.328353    0.265973    0.200049     0.005394
PD299   PD        0.360177    0.232098    0.197255     0.005394
AU300   AU        0.362311    0.267562    0.231333     0.007504
AU301   AU        0.396104    0.230123    0.229196     0.007504
AU302   AU        0.396031    0.267492    0.198961     0.007504
AU303   AU        0.428951    0.234384    0.199594     0.007504
PD304   PD        0.429363    0.269510    0.232962     0.005394
AU305   AU        0.463702    0.231551    0.230973     0.007504
PD306   PD        0.465301    0.265558    0.197997     0.005394
PD307   PD        0.499975    0.230328    0.198538     0.005394
AU308   AU        0.497696    0.265895    0.231211     0.007504
AU309   AU        0.531615    0.231111    0.231038     0.007504
AU310   AU        0.530064    0.271376    0.198706     0.007504
PD311   PD        0.565401    0.234770    0.197128     0.005394
PD312   PD        0.563071    0.268297    0.229965     0.005394
PD313   PD        0.596773    0.230844    0.232096     0.005394
PD314   PD        0.598968    0.270880    0.201146     0.005394
PD315   PD        0.629523    0.231136    0.203348     0.005394
AU316   AU        0.630638    0.270635    0.233255     0.007504
PD317   PD        0.660820    0.194661    0.191470     0.005394
PD318   PD        0.661531    0.264092    0.200523     0.005394
PD319   PD        0.698104    0.224478    0.203604     0.005394
PD320   PD        0.127663    0.307690    0.227682     0.005394
PD321   PD        0.162982    0.300331    0.199115     0.005394
PD322   PD        0.163695    0.338095    0.231980     0.005394
PD323   PD        0.197262    0.301129    0.233710     0.005394
PD324   PD        0.196687    0.339622    0.196911     0.005394
AU325   AU        0.227787    0.301350    0.199192     0.007504
PD326   PD        0.227556    0.336810    0.233199     0.005394
AU327   AU        0.261067    0.302291    0.231955     0.007504
PD328   PD        0.261354    0.337584    0.199761     0.005394
AU329   AU        0.294631    0.304210    0.199244     0.007504
AU330   AU        0.294297    0.337446    0.232667     0.007504
AU331   AU        0.327537    0.303378    0.231560     0.007504
PD332   PD        0.328273    0.337799    0.197826     0.005394
PD333   PD        0.360688    0.301735    0.200448     0.005394
AU334   AU        0.362867    0.338097    0.229381     0.007504
AU335   AU        0.397236    0.303236    0.232608     0.007504
PD336   PD        0.395133    0.336299    0.195521     0.005394
AU337   AU        0.428778    0.300842    0.197728     0.007504
AU338   AU        0.430391    0.336616    0.231463     0.007504
AU339   AU        0.462538    0.301287    0.232809     0.007504
AU340   AU        0.464039    0.336098    0.198994     0.007504
AU341   AU        0.496761    0.301697    0.198990     0.007504
AU342   AU        0.495057    0.339019    0.230299     0.007504
AU343   AU        0.528840    0.303440    0.232147     0.007504
AU344   AU        0.530145    0.338324    0.196039     0.007504
AU345   AU        0.563467    0.305374    0.197782     0.007504
AU346   AU        0.564188    0.340190    0.230498     0.007504
PD347   PD        0.596565    0.304484    0.228864     0.005394
AU348   AU        0.596874    0.339972    0.198418     0.007504
PD349   PD        0.632351    0.305443    0.197652     0.005394
PD350   PD        0.630433    0.340177    0.229222     0.005394
PD351   PD        0.666513    0.304167    0.234215     0.005394
PD352   PD        0.666824    0.340294    0.199737     0.005394
PD353   PD        0.699007    0.304594    0.199772     0.005394
PD354   PD        0.697785    0.340377    0.235109     0.005394
PD355   PD        0.728812    0.301228    0.231603     0.005394
PD356   PD        0.093971    0.408997    0.230845     0.005394
PD357   PD        0.132059    0.372265    0.229675     0.005394
PD358   PD        0.127774    0.409656    0.201709     0.005394
PD359   PD        0.162830    0.376934    0.196865     0.005394
PD360   PD        0.163241    0.413853    0.231039     0.005394
PD361   PD        0.197252    0.378596    0.231631     0.005394
PD362   PD        0.197086    0.408870    0.196729     0.005394
PD363   PD        0.231886    0.375641    0.198127     0.005394
AU364   AU        0.230726    0.412371    0.229368     0.007504
PD365   PD        0.261198    0.376065    0.233770     0.005394
PD366   PD        0.260386    0.412992    0.195016     0.005394
PD367   PD        0.295562    0.374602    0.201239     0.005394
AU368   AU        0.294289    0.413834    0.230380     0.007504
PD369   PD        0.327147    0.376158    0.232136     0.005394
PD370   PD        0.329632    0.410696    0.196834     0.005394
PD371   PD        0.364155    0.372589    0.199466     0.005394
PD372   PD        0.359829    0.411370    0.232083     0.005394
PD373   PD        0.394864    0.377490    0.232951     0.005394
PD374   PD        0.389691    0.413662    0.195501     0.005394
PD375   PD        0.431099    0.372150    0.195706     0.005394
PD376   PD        0.431589    0.409944    0.230962     0.005394
PD377   PD        0.464474    0.374831    0.233021     0.005394
PD378   PD        0.465964    0.411252    0.200991     0.005394
AU379   AU        0.497495    0.376216    0.195501     0.007504
PD380   PD        0.497649    0.412218    0.230955     0.005394
AU381   AU        0.530270    0.374027    0.228532     0.007504
PD382   PD        0.532250    0.411957    0.199877     0.005394
AU383   AU        0.565978    0.375026    0.199818     0.007504
PD384   PD        0.564828    0.413923    0.230851     0.005394
AU385   AU        0.599147    0.376523    0.230144     0.007504
AU386   AU        0.597615    0.410789    0.198581     0.007504
AU387   AU        0.630798    0.378098    0.197808     0.007504
PD388   PD        0.633689    0.409811    0.230650     0.005394
PD389   PD        0.665949    0.375036    0.232344     0.005394
PD390   PD        0.667211    0.411957    0.198523     0.005394
PD391   PD        0.697643    0.375005    0.198261     0.005394
PD392   PD        0.696911    0.412292    0.234256     0.005394
PD393   PD        0.727224    0.376117    0.233723     0.005394
PD394   PD        0.728925    0.407073    0.196437     0.005394
PD395   PD        0.764334    0.379825    0.189462     0.005394
PD396   PD        0.097679    0.481504    0.229582     0.005394
PD397   PD        0.128581    0.443780    0.233407     0.005394
PD398   PD        0.128268    0.479858    0.196628     0.005394
PD399   PD        0.161388    0.446534    0.197685     0.005394
PD400   PD        0.160245    0.481707    0.233761     0.005394
PD401   PD        0.196184    0.444796    0.229131     0.005394
PD402   PD        0.194459    0.480765    0.196684     0.005394
PD403   PD        0.230151    0.447314    0.196080     0.005394
PD404   PD        0.227668    0.482463    0.227598     0.005394
AU405   AU        0.263068    0.448964    0.230726     0.007504
AU406   AU        0.261729    0.483818    0.197125     0.007504
AU407   AU        0.295536    0.448696    0.197969     0.007504
AU408   AU        0.296139    0.485108    0.229100     0.007504
AU409   AU        0.329402    0.448760    0.228642     0.007504
AU410   AU        0.327883    0.485886    0.196562     0.007504
AU411   AU        0.360709    0.450422    0.195480     0.007504
AU412   AU        0.359389    0.484799    0.227884     0.007504
PD413   PD        0.394064    0.446423    0.228221     0.005394
AU414   AU        0.393402    0.485319    0.196307     0.007504
PD415   PD        0.433234    0.446288    0.200262     0.005394
PD416   PD        0.428946    0.484839    0.228722     0.005394
AU417   AU        0.466598    0.449347    0.231185     0.007504
AU418   AU        0.463358    0.487564    0.198448     0.007504
AU419   AU        0.499534    0.449969    0.199351     0.007504
AU420   AU        0.497902    0.484026    0.229644     0.007504
AU421   AU        0.531311    0.449571    0.231905     0.007504
PD422   PD        0.529670    0.485368    0.198366     0.005394
PD423   PD        0.566310    0.446031    0.198313     0.005394
AU424   AU        0.566182    0.483454    0.230456     0.007504
AU425   AU        0.598999    0.446385    0.232775     0.007504
AU426   AU        0.598937    0.482838    0.199304     0.007504
AU427   AU        0.630145    0.445076    0.199848     0.007504
AU428   AU        0.629634    0.483833    0.232773     0.007504
PD429   PD        0.665712    0.448109    0.230829     0.005394
PD430   PD        0.660856    0.483975    0.198149     0.005394
PD431   PD        0.698120    0.449987    0.199425     0.005394
AU432   AU        0.694446    0.483460    0.232101     0.007504
PD433   PD        0.727960    0.446922    0.234054     0.005394
PD434   PD        0.727044    0.481854    0.200355     0.005394
PD435   PD        0.761495    0.485633    0.235153     0.005394
PD436   PD        0.130534    0.518232    0.234093     0.005394
PD437   PD        0.129666    0.552373    0.198739     0.005394
AU438   AU        0.160929    0.555148    0.230024     0.007504
PD439   PD        0.193717    0.518471    0.227564     0.005394
PD440   PD        0.193881    0.555283    0.198386     0.005394
PD441   PD        0.229156    0.518715    0.195843     0.005394
PD442   PD        0.231337    0.556829    0.229745     0.005394
AU443   AU        0.262327    0.520752    0.230898     0.007504
PD444   PD        0.264450    0.554335    0.195264     0.005394
AU445   AU        0.294848    0.519874    0.195799     0.007504
AU446   AU        0.295631    0.554573    0.228529     0.007504
AU447   AU        0.328995    0.519567    0.231265     0.007504
AU448   AU        0.328104    0.556104    0.197512     0.007504
AU449   AU        0.361672    0.520527    0.196567     0.007504
AU450   AU        0.361787    0.556307    0.230187     0.007504
AU451   AU        0.396206    0.520229    0.230084     0.007504
AU452   AU        0.394250    0.555738    0.196931     0.007504
PD453   PD        0.426726    0.521264    0.195067     0.005394
AU454   AU        0.430791    0.554697    0.231197     0.007504
AU455   AU        0.464910    0.519616    0.232672     0.007504
AU456   AU        0.462557    0.554495    0.198677     0.007504
AU457   AU        0.498505    0.520713    0.196003     0.007504
AU458   AU        0.497993    0.554361    0.230507     0.007504
AU459   AU        0.529639    0.520652    0.231167     0.007504
PD460   PD        0.531012    0.557900    0.197799     0.005394
AU461   AU        0.566065    0.519156    0.195745     0.007504
AU462   AU        0.561610    0.556444    0.230092     0.007504
AU463   AU        0.598842    0.520453    0.231100     0.007504
PD464   PD        0.598742    0.552556    0.197397     0.005394
PD465   PD        0.630042    0.521677    0.200810     0.005394
AU466   AU        0.631361    0.556065    0.231242     0.007504
AU467   AU        0.665287    0.518850    0.231052     0.007504
PD468   PD        0.664094    0.555004    0.200731     0.005394
PD469   PD        0.697077    0.521925    0.200428     0.005394
AU470   AU        0.697251    0.556143    0.231998     0.007504
PD471   PD        0.730656    0.549976    0.199119     0.005394
PD472   PD        0.128557    0.586998    0.232886     0.005394
PD473   PD        0.157945    0.591466    0.198809     0.005394
PD474   PD        0.160081    0.624782    0.232154     0.005394
PD475   PD        0.192075    0.590265    0.231371     0.005394
PD476   PD        0.197291    0.623023    0.198911     0.005394
PD477   PD        0.228345    0.590552    0.197327     0.005394
PD478   PD        0.228487    0.625414    0.232858     0.005394
PD479   PD        0.262642    0.592226    0.227987     0.005394
AU480   AU        0.262086    0.627533    0.199314     0.007504
PD481   PD        0.294540    0.592073    0.197499     0.005394
AU482   AU        0.293912    0.628646    0.230694     0.007504
AU483   AU        0.328512    0.591772    0.229609     0.007504
PD484   PD        0.330445    0.627409    0.197255     0.005394
PD485   PD        0.363689    0.592110    0.197715     0.005394
PD486   PD        0.362964    0.625810    0.231066     0.005394
AU487   AU        0.395676    0.589973    0.231837     0.007504
AU488   AU        0.396898    0.626343    0.196744     0.007504
AU489   AU        0.429805    0.590667    0.198341     0.007504
AU490   AU        0.428687    0.624193    0.231145     0.007504
PD491   PD        0.463602    0.589028    0.231466     0.005394
PD492   PD        0.466914    0.626992    0.198178     0.005394
PD493   PD        0.495750    0.588836    0.198335     0.005394
PD494   PD        0.497882    0.626903    0.231831     0.005394
AU495   AU        0.529442    0.591185    0.231728     0.007504
PD496   PD        0.532541    0.626639    0.196541     0.005394
PD497   PD        0.566308    0.591224    0.197616     0.005394
AU498   AU        0.565016    0.625667    0.230399     0.007504
AU499   AU        0.596735    0.589124    0.231533     0.007504
AU500   AU        0.599229    0.626514    0.198983     0.007504
PD501   PD        0.630151    0.591397    0.199788     0.005394
PD502   PD        0.631615    0.626385    0.231266     0.005394
AU503   AU        0.663952    0.590247    0.230479     0.007504
PD504   PD        0.665822    0.626046    0.197791     0.005394
PD505   PD        0.699291    0.590775    0.201792     0.005394
PD506   PD        0.697342    0.625089    0.232754     0.005394
PD507   PD        0.731326    0.589476    0.232716     0.005394
PD508   PD        0.194997    0.659875    0.232801     0.005394
PD509   PD        0.226441    0.661364    0.198405     0.005394
PD510   PD        0.227589    0.696969    0.234901     0.005394
AU511   AU        0.262381    0.664480    0.230297     0.007504
PD512   PD        0.261161    0.696158    0.197161     0.005394
AU513   AU        0.294842    0.663233    0.198475     0.007504
PD514   PD        0.295975    0.697442    0.233454     0.005394
PD515   PD        0.328168    0.663720    0.229552     0.005394
PD516   PD        0.329113    0.696100    0.198983     0.005394
AU517   AU        0.365753    0.661943    0.197970     0.007504
PD518   PD        0.361290    0.696740    0.232169     0.005394
AU519   AU        0.396414    0.662897    0.229218     0.007504
PD520   PD        0.395893    0.699417    0.199213     0.005394
PD521   PD        0.429898    0.661191    0.198238     0.005394
PD522   PD        0.429064    0.696393    0.231341     0.005394
AU523   AU        0.462784    0.661893    0.230052     0.007504
PD524   PD        0.463345    0.698287    0.196941     0.005394
PD525   PD        0.496865    0.663601    0.198023     0.005394
AU526   AU        0.498453    0.697411    0.231728     0.007504
PD527   PD        0.531513    0.662244    0.233733     0.005394
PD528   PD        0.531377    0.698288    0.201804     0.005394
AU529   AU        0.566117    0.663311    0.199654     0.007504
AU530   AU        0.563900    0.698087    0.232221     0.007504
PD531   PD        0.598231    0.663755    0.230390     0.005394
PD532   PD        0.595245    0.698175    0.198501     0.005394
PD533   PD        0.633665    0.662329    0.200547     0.005394
PD534   PD        0.629149    0.700091    0.233182     0.005394
PD535   PD        0.664960    0.663397    0.230661     0.005394
PD536   PD        0.260814    0.733302    0.232926     0.005394
PD537   PD        0.292822    0.730839    0.200676     0.005394
PD538   PD        0.294787    0.771102    0.229680     0.005394
PD539   PD        0.328036    0.732450    0.230515     0.005394
PD540   PD        0.362548    0.736261    0.199032     0.005394
PD541   PD        0.361886    0.766435    0.233997     0.005394
AU542   AU        0.395425    0.733171    0.232592     0.007504
PD543   PD        0.397993    0.767188    0.201995     0.005394
PD544   PD        0.431849    0.732570    0.201877     0.005394
AU545   AU        0.428606    0.767101    0.234237     0.007504
PD546   PD        0.463248    0.730595    0.232949     0.005394
PD547   PD        0.463527    0.770384    0.199297     0.005394
PD548   PD        0.495019    0.731747    0.198353     0.005394
PD549   PD        0.494721    0.769508    0.233656     0.005394
AU550   AU        0.528349    0.735502    0.230527     0.007504
PD551   PD        0.563560    0.733932    0.202916     0.005394
PD552   PD        0.564360    0.769525    0.235961     0.005394
PD553   PD        0.595960    0.732966    0.232098     0.005394
PD554   PD        0.397177    0.801205    0.233621     0.005394
PD555   PD        0.461702    0.800300    0.233707     0.005394
PD556   PD        0.362271    0.055909    0.298224     0.005394
PD557   PD        0.427745    0.057265    0.299823     0.005394
PD558   PD        0.498300    0.056071    0.301676     0.005394
PD559   PD        0.229358    0.125263    0.296605     0.005394
PD560   PD        0.264349    0.089087    0.299434     0.005394
PD561   PD        0.259099    0.127567    0.262203     0.005394
PD562   PD        0.293855    0.124293    0.297091     0.005394
PD563   PD        0.326510    0.088737    0.299157     0.005394
PD564   PD        0.330067    0.125208    0.266936     0.005394
PD565   PD        0.361613    0.089964    0.267391     0.005394
PD566   PD        0.364325    0.128629    0.299406     0.005394
PD567   PD        0.395902    0.090745    0.299181     0.005394
PD568   PD        0.396164    0.127603    0.269336     0.005394
PD569   PD        0.429845    0.092676    0.265237     0.005394
PD570   PD        0.431292    0.123833    0.296319     0.005394
PD571   PD        0.461793    0.090424    0.303143     0.005394
PD572   PD        0.463031    0.124867    0.264386     0.005394
PD573   PD        0.490725    0.093550    0.267684     0.005394
PD574   PD        0.494318    0.129227    0.298577     0.005394
PD575   PD        0.529924    0.090542    0.301131     0.005394
PD576   PD        0.526367    0.120952    0.263932     0.005394
PD577   PD        0.563315    0.125819    0.295914     0.005394
PD578   PD        0.633095    0.071967    0.294998     0.005394
PD579   PD        0.594685    0.126630    0.265552     0.005394
PD580   PD        0.680337    0.118362    0.274994     0.005394
PD581   PD        0.164117    0.198530    0.300295     0.005394
PD582   PD        0.195740    0.161378    0.298115     0.005394
PD583   PD        0.195923    0.199442    0.266001     0.005394
PD584   PD        0.228528    0.163635    0.265156     0.005394
PD585   PD        0.227530    0.200380    0.298593     0.005394
PD586   PD        0.259156    0.160633    0.296698     0.005394
PD587   PD        0.262311    0.197099    0.264770     0.005394
PD588   PD        0.295368    0.161121    0.263994     0.005394
PD589   PD        0.295730    0.196389    0.297855     0.005394
AU590   AU        0.330190    0.162065    0.299197     0.007504
AU591   AU        0.329322    0.196286    0.264292     0.007504
PD592   PD        0.364144    0.158859    0.266159     0.005394
AU593   AU        0.363495    0.197712    0.297746     0.007504
PD594   PD        0.396463    0.163600    0.298380     0.005394
AU595   AU        0.393587    0.196443    0.264214     0.007504
PD596   PD        0.431219    0.161524    0.265043     0.005394
AU597   AU        0.429838    0.196178    0.298016     0.007504
AU598   AU        0.462360    0.160880    0.300455     0.007504
PD599   PD        0.466065    0.192530    0.263812     0.005394
PD600   PD        0.494986    0.158407    0.264419     0.005394
AU601   AU        0.495951    0.195931    0.298790     0.007504
PD602   PD        0.528867    0.159003    0.297162     0.005394
AU603   AU        0.529095    0.195585    0.264631     0.007504
AU604   AU        0.563368    0.163412    0.266301     0.007504
PD605   PD        0.564479    0.199645    0.297820     0.005394
PD606   PD        0.594188    0.162897    0.298237     0.005394
PD607   PD        0.595853    0.195430    0.266283     0.005394
PD608   PD        0.629168    0.159781    0.267270     0.005394
PD609   PD        0.632272    0.195777    0.297817     0.005394
PD610   PD        0.667345    0.159741    0.299923     0.005394
PD611   PD        0.665579    0.194549    0.268378     0.005394
PD612   PD        0.695141    0.196265    0.300635     0.005394
PD613   PD        0.094193    0.265724    0.297142     0.005394
PD614   PD        0.129077    0.234798    0.299286     0.005394
PD615   PD        0.125166    0.273988    0.262668     0.005394
PD616   PD        0.159187    0.232756    0.266172     0.005394
PD617   PD        0.161089    0.266224    0.299052     0.005394
AU618   AU        0.194874    0.234304    0.296769     0.007504
AU619   AU        0.195151    0.267297    0.265429     0.007504
AU620   AU        0.229882    0.233355    0.263680     0.007504
AU621   AU        0.229169    0.268669    0.297833     0.007504
AU622   AU        0.262992    0.233079    0.298181     0.007504
AU623   AU        0.262594    0.266902    0.263552     0.007504
AU624   AU        0.296116    0.232125    0.263230     0.007504
AU625   AU        0.294419    0.267647    0.296628     0.007504
AU626   AU        0.328929    0.229602    0.297402     0.007504
PD627   PD        0.327628    0.269794    0.263870     0.005394
PD628   PD        0.360079    0.230642    0.264792     0.005394
AU629   AU        0.363350    0.264801    0.297335     0.007504
AU630   AU        0.395945    0.229521    0.298129     0.007504
AU631   AU        0.395534    0.266612    0.263875     0.007504
AU632   AU        0.428925    0.232222    0.264750     0.007504
AU633   AU        0.429770    0.267530    0.296359     0.007504
AU634   AU        0.462222    0.230965    0.297084     0.007504
AU635   AU        0.461853    0.267803    0.265723     0.007504
AU636   AU        0.496638    0.230771    0.262524     0.007504
AU637   AU        0.496396    0.267977    0.298661     0.007504
PD638   PD        0.529222    0.231674    0.296163     0.005394
AU639   AU        0.529163    0.267452    0.263709     0.007504
PD640   PD        0.562389    0.231731    0.261870     0.005394
PD641   PD        0.563562    0.267566    0.298043     0.005394
PD642   PD        0.597247    0.234009    0.292715     0.005394
PD643   PD        0.592993    0.269077    0.263787     0.005394
PD644   PD        0.631714    0.230779    0.265612     0.005394
PD645   PD        0.628504    0.268573    0.295079     0.005394
PD646   PD        0.665422    0.232615    0.296514     0.005394
PD647   PD        0.662867    0.267211    0.264732     0.005394
PD648   PD        0.698017    0.233461    0.266706     0.005394
PD649   PD        0.695012    0.270201    0.297264     0.005394
PD650   PD        0.731734    0.236324    0.297232     0.005394
PD651   PD        0.731830    0.265232    0.264623     0.005394
PD652   PD        0.763911    0.268857    0.299011     0.005394
PD653   PD        0.096520    0.339596    0.297669     0.005394
AU654   AU        0.128799    0.303644    0.299355     0.007504
AU655   AU        0.129324    0.338069    0.263845     0.007504
PD656   PD        0.162856    0.303981    0.266573     0.005394
PD657   PD        0.162359    0.336714    0.299697     0.005394
AU658   AU        0.195658    0.303430    0.296694     0.007504
PD659   PD        0.195371    0.340257    0.265918     0.005394
AU660   AU        0.229924    0.300544    0.264300     0.007504
AU661   AU        0.228792    0.338126    0.300747     0.007504
AU662   AU        0.261525    0.302399    0.297254     0.007504
AU663   AU        0.261668    0.337240    0.264445     0.007504
AU664   AU        0.293660    0.303898    0.265283     0.007504
AU665   AU        0.293554    0.339349    0.296747     0.007504
AU666   AU        0.327803    0.303872    0.297474     0.007504
AU667   AU        0.325795    0.339397    0.264478     0.007504
AU668   AU        0.360718    0.303490    0.267545     0.007504
AU669   AU        0.361127    0.339281    0.297233     0.007504
AU670   AU        0.396256    0.301450    0.297694     0.007504
AU671   AU        0.395688    0.338138    0.263866     0.007504
AU672   AU        0.429190    0.302679    0.266392     0.007504
AU673   AU        0.429954    0.340016    0.296507     0.007504
AU674   AU        0.463249    0.303972    0.297231     0.007504
AU675   AU        0.462151    0.339025    0.263895     0.007504
AU676   AU        0.494635    0.304734    0.264425     0.007504
AU677   AU        0.496520    0.340687    0.298151     0.007504
AU678   AU        0.528263    0.303888    0.295563     0.007504
AU679   AU        0.531867    0.341033    0.263053     0.007504
PD680   PD        0.560530    0.302886    0.264313     0.005394
AU681   AU        0.562555    0.341011    0.297680     0.007504
PD682   PD        0.596117    0.304675    0.296534     0.005394
AU683   AU        0.598349    0.339408    0.263509     0.007504
PD684   PD        0.631939    0.307770    0.261982     0.005394
PD685   PD        0.633596    0.340037    0.297248     0.005394
PD686   PD        0.664445    0.304078    0.298055     0.005394
PD687   PD        0.664558    0.338698    0.263767     0.005394
PD688   PD        0.699602    0.304123    0.265555     0.005394
AU689   AU        0.697120    0.338949    0.296950     0.007504
PD690   PD        0.729884    0.303026    0.299507     0.005394
PD691   PD        0.730573    0.338727    0.265789     0.005394
PD692   PD        0.763583    0.340794    0.299994     0.005394
PD693   PD        0.026020    0.380127    0.263483     0.005394
AU694   AU        0.097314    0.373703    0.263956     0.007504
PD695   PD        0.095271    0.411488    0.296765     0.005394
PD696   PD        0.129338    0.375043    0.299784     0.005394
PD697   PD        0.130053    0.409357    0.263072     0.005394
PD698   PD        0.161127    0.375901    0.266552     0.005394
AU699   AU        0.160997    0.408836    0.299396     0.007504
AU700   AU        0.193736    0.374384    0.298272     0.007504
PD701   PD        0.193840    0.410571    0.265855     0.005394
PD702   PD        0.227914    0.374327    0.264150     0.005394
AU703   AU        0.227294    0.411734    0.297887     0.007504
AU704   AU        0.260279    0.375914    0.295557     0.007504
AU705   AU        0.262429    0.411951    0.264217     0.007504
AU706   AU        0.294443    0.374419    0.265595     0.007504
AU707   AU        0.294324    0.413970    0.296119     0.007504
AU708   AU        0.327540    0.375836    0.297441     0.007504
PD709   PD        0.326634    0.413789    0.263791     0.005394
AU710   AU        0.361308    0.374419    0.265138     0.007504
AU711   AU        0.361260    0.411437    0.298207     0.007504
AU712   AU        0.396609    0.374848    0.297343     0.007504
AU713   AU        0.394247    0.412150    0.266476     0.007504
PD714   PD        0.429332    0.373106    0.262578     0.005394
AU715   AU        0.430508    0.410112    0.294718     0.007504
AU716   AU        0.464492    0.374269    0.297845     0.007504
AU717   AU        0.463370    0.411790    0.263538     0.007504
AU718   AU        0.498697    0.375607    0.265008     0.007504
AU719   AU        0.496848    0.412021    0.296232     0.007504
AU720   AU        0.530212    0.378229    0.298829     0.007504
AU721   AU        0.530915    0.413460    0.263574     0.007504
AU722   AU        0.566703    0.376166    0.263426     0.007504
AU723   AU        0.563173    0.411455    0.298287     0.007504
AU724   AU        0.597414    0.378731    0.296576     0.007504
AU725   AU        0.598736    0.411891    0.265269     0.007504
AU726   AU        0.632083    0.377002    0.265389     0.007504
AU727   AU        0.631669    0.413503    0.298291     0.007504
PD728   PD        0.665968    0.377877    0.299116     0.005394
AU729   AU        0.662560    0.412725    0.264911     0.007504
PD730   PD        0.694726    0.376566    0.265978     0.005394
AU731   AU        0.697146    0.413779    0.299136     0.007504
PD732   PD        0.726861    0.376669    0.297832     0.005394
PD733   PD        0.728565    0.414054    0.266389     0.005394
PD734   PD        0.761651    0.377820    0.268313     0.005394
PD735   PD        0.761787    0.414134    0.301337     0.005394
PD736   PD        0.796423    0.376985    0.301738     0.005394
PD737   PD        0.065303    0.448259    0.296904     0.005394
PD738   PD        0.097429    0.447017    0.266241     0.005394
PD739   PD        0.096320    0.480464    0.298102     0.005394
AU740   AU        0.130244    0.446101    0.299063     0.007504
AU741   AU        0.128634    0.481725    0.266383     0.007504
AU742   AU        0.161373    0.446506    0.264855     0.007504
AU743   AU        0.163064    0.479880    0.300051     0.007504
AU744   AU        0.191996    0.445406    0.297874     0.007504
PD745   PD        0.195332    0.480727    0.263520     0.005394
PD746   PD        0.229133    0.448555    0.264810     0.005394
AU747   AU        0.227781    0.481628    0.296830     0.007504
AU748   AU        0.261536    0.446812    0.297863     0.007504
AU749   AU        0.263294    0.483685    0.263681     0.007504
AU750   AU        0.294826    0.448234    0.263145     0.007504
AU751   AU        0.294553    0.483865    0.296995     0.007504
AU752   AU        0.326195    0.448661    0.297936     0.007504
AU753   AU        0.326803    0.484367    0.262865     0.007504
AU754   AU        0.360776    0.451188    0.264964     0.007504
AU755   AU        0.362328    0.484994    0.295392     0.007504
AU756   AU        0.395876    0.448038    0.297469     0.007504
PD757   PD        0.396062    0.485038    0.262607     0.005394
AU758   AU        0.430253    0.449481    0.262638     0.007504
AU759   AU        0.431433    0.483955    0.297275     0.007504
AU760   AU        0.462810    0.445562    0.296872     0.007504
AU761   AU        0.464871    0.481230    0.265458     0.007504
AU762   AU        0.497011    0.446752    0.262971     0.007504
AU763   AU        0.498793    0.482850    0.297318     0.007504
AU764   AU        0.531090    0.448667    0.297180     0.007504
AU765   AU        0.532598    0.484761    0.262411     0.007504
AU766   AU        0.565414    0.448638    0.263759     0.007504
AU767   AU        0.564944    0.482567    0.295189     0.007504
AU768   AU        0.596850    0.446426    0.297069     0.007504
AU769   AU        0.597235    0.485017    0.264109     0.007504
AU770   AU        0.632502    0.448898    0.264560     0.007504
AU771   AU        0.631084    0.484649    0.295012     0.007504
AU772   AU        0.664027    0.447957    0.295694     0.007504
AU773   AU        0.665039    0.485711    0.264471     0.007504
AU774   AU        0.697145    0.450337    0.266017     0.007504
AU775   AU        0.697253    0.485871    0.297038     0.007504
AU776   AU        0.729936    0.449602    0.299911     0.007504
AU777   AU        0.729568    0.482192    0.265978     0.007504
PD778   PD        0.759031    0.447130    0.266576     0.005394
PD779   PD        0.763562    0.483635    0.298303     0.005394
PD780   PD        0.832306    0.446579    0.262859     0.005394
PD781   PD        0.062562    0.520250    0.298014     0.005394
PD782   PD        0.098183    0.516916    0.265998     0.005394
PD783   PD        0.098077    0.550610    0.297878     0.005394
PD784   PD        0.129311    0.517002    0.300351     0.005394
PD785   PD        0.127940    0.553193    0.267755     0.005394
PD786   PD        0.161857    0.514024    0.267781     0.005394
PD787   PD        0.159389    0.550999    0.295202     0.005394
PD788   PD        0.195679    0.517964    0.299462     0.005394
PD789   PD        0.194930    0.554859    0.265725     0.005394
PD790   PD        0.228320    0.517040    0.262416     0.005394
AU791   AU        0.229861    0.553060    0.297611     0.007504
AU792   AU        0.260015    0.518861    0.295157     0.007504
PD793   PD        0.260879    0.558024    0.263427     0.005394
AU794   AU        0.294308    0.521374    0.264202     0.007504
AU795   AU        0.294885    0.553665    0.299177     0.007504
AU796   AU        0.328053    0.518081    0.297164     0.007504
AU797   AU        0.326738    0.554205    0.264069     0.007504
AU798   AU        0.363440    0.521258    0.264234     0.007504
AU799   AU        0.359796    0.553941    0.297437     0.007504
AU800   AU        0.397667    0.519447    0.295549     0.007504
AU801   AU        0.397543    0.553125    0.263106     0.007504
AU802   AU        0.432515    0.519093    0.264104     0.007504
AU803   AU        0.429499    0.556055    0.295480     0.007504
AU804   AU        0.463444    0.520190    0.296600     0.007504
AU805   AU        0.465903    0.555962    0.264399     0.007504
AU806   AU        0.500393    0.521269    0.264982     0.007504
AU807   AU        0.496506    0.554471    0.298075     0.007504
AU808   AU        0.532120    0.518880    0.297431     0.007504
AU809   AU        0.532592    0.556205    0.263541     0.007504
AU810   AU        0.564979    0.522583    0.263950     0.007504
AU811   AU        0.567504    0.556127    0.297341     0.007504
AU812   AU        0.597846    0.519695    0.297849     0.007504
AU813   AU        0.599643    0.555444    0.264512     0.007504
AU814   AU        0.632661    0.521513    0.263457     0.007504
AU815   AU        0.631966    0.554963    0.297448     0.007504
AU816   AU        0.664843    0.520079    0.295083     0.007504
AU817   AU        0.664603    0.555440    0.264986     0.007504
AU818   AU        0.699068    0.519661    0.262857     0.007504
AU819   AU        0.698934    0.555686    0.295518     0.007504
AU820   AU        0.728835    0.519852    0.297191     0.007504
PD821   PD        0.729175    0.555161    0.263898     0.005394
PD822   PD        0.760538    0.515791    0.263179     0.005394
PD823   PD        0.762371    0.555467    0.299526     0.005394
PD824   PD        0.828544    0.519582    0.329816     0.005394
PD825   PD        0.098877    0.625349    0.296523     0.005394
PD826   PD        0.129753    0.589542    0.300485     0.005394
PD827   PD        0.126632    0.619113    0.263958     0.005394
PD828   PD        0.162936    0.587305    0.264459     0.005394
PD829   PD        0.159348    0.626185    0.294739     0.005394
PD830   PD        0.195681    0.588229    0.296650     0.005394
AU831   AU        0.193978    0.627264    0.265315     0.007504
PD832   PD        0.227163    0.591699    0.262897     0.005394
PD833   PD        0.226285    0.626408    0.296899     0.005394
PD834   PD        0.260498    0.589525    0.299355     0.005394
PD835   PD        0.262930    0.623477    0.261272     0.005394
PD836   PD        0.294551    0.587210    0.263311     0.005394
PD837   PD        0.293761    0.626966    0.299292     0.005394
AU838   AU        0.327166    0.591907    0.297381     0.007504
PD839   PD        0.327906    0.627146    0.264198     0.005394
PD840   PD        0.365202    0.590665    0.263859     0.005394
PD841   PD        0.361285    0.627357    0.297723     0.005394
PD842   PD        0.398621    0.592071    0.295624     0.005394
PD843   PD        0.395933    0.624335    0.261985     0.005394
AU844   AU        0.430781    0.589368    0.262145     0.007504
AU845   AU        0.431126    0.627504    0.297862     0.007504
AU846   AU        0.465183    0.591798    0.297292     0.007504
PD847   PD        0.463556    0.625178    0.263034     0.005394
AU848   AU        0.499086    0.590353    0.266555     0.007504
AU849   AU        0.496119    0.628898    0.297196     0.007504
AU850   AU        0.532662    0.590636    0.297149     0.007504
AU851   AU        0.533476    0.626419    0.265131     0.007504
AU852   AU        0.564882    0.591418    0.263666     0.007504
AU853   AU        0.564391    0.627336    0.298369     0.007504
AU854   AU        0.597699    0.592608    0.297280     0.007504
AU855   AU        0.598438    0.626114    0.264040     0.007504
PD856   PD        0.631715    0.592695    0.264174     0.005394
AU857   AU        0.631165    0.624440    0.296337     0.007504
AU858   AU        0.665181    0.589111    0.297804     0.007504
AU859   AU        0.665199    0.625732    0.263221     0.007504
AU860   AU        0.698392    0.591916    0.266205     0.007504
AU861   AU        0.697295    0.627354    0.295776     0.007504
AU862   AU        0.729845    0.589914    0.298981     0.007504
PD863   PD        0.731506    0.626067    0.266324     0.005394
PD864   PD        0.763406    0.623447    0.301690     0.005394
PD865   PD        0.131840    0.701525    0.257553     0.005394
PD866   PD        0.160850    0.661645    0.262695     0.005394
PD867   PD        0.163883    0.692530    0.298356     0.005394
PD868   PD        0.192326    0.662537    0.298907     0.005394
PD869   PD        0.195824    0.696952    0.266151     0.005394
PD870   PD        0.226847    0.662649    0.265656     0.005394
AU871   AU        0.227952    0.699012    0.296709     0.007504
AU872   AU        0.261667    0.663454    0.295284     0.007504
AU873   AU        0.260815    0.698142    0.264136     0.007504
AU874   AU        0.293730    0.662168    0.263484     0.007504
AU875   AU        0.292678    0.698231    0.295065     0.007504
AU876   AU        0.327348    0.663235    0.300224     0.007504
AU877   AU        0.327667    0.698211    0.266444     0.007504
AU878   AU        0.361347    0.662180    0.265986     0.007504
AU879   AU        0.362007    0.697005    0.298807     0.007504
AU880   AU        0.395072    0.663329    0.299017     0.007504
AU881   AU        0.395129    0.696991    0.266854     0.007504
PD882   PD        0.430196    0.663134    0.265141     0.005394
AU883   AU        0.429984    0.695648    0.297887     0.007504
AU884   AU        0.464309    0.662949    0.297875     0.007504
AU885   AU        0.463263    0.698741    0.265869     0.007504
AU886   AU        0.494868    0.662557    0.264168     0.007504
AU887   AU        0.498328    0.697144    0.297506     0.007504
AU888   AU        0.532000    0.663729    0.296302     0.007504
AU889   AU        0.530412    0.700292    0.264132     0.007504
AU890   AU        0.563832    0.662094    0.263907     0.007504
PD891   PD        0.566125    0.698966    0.295405     0.005394
AU892   AU        0.598348    0.663639    0.297331     0.007504
PD893   PD        0.596670    0.699744    0.266623     0.005394
PD894   PD        0.632937    0.662972    0.265160     0.005394
PD895   PD        0.629905    0.698288    0.297353     0.005394
AU896   AU        0.663387    0.661695    0.298451     0.007504
PD897   PD        0.665295    0.694977    0.264960     0.005394
PD898   PD        0.696103    0.661828    0.264172     0.005394
PD899   PD        0.695622    0.698009    0.298850     0.005394
PD900   PD        0.729910    0.660896    0.300362     0.005394
AU901   AU        0.194627    0.730730    0.299961     0.007504
PD902   PD        0.229858    0.732780    0.263532     0.005394
PD903   PD        0.226255    0.765422    0.296569     0.005394
AU904   AU        0.261495    0.732602    0.297679     0.007504
PD905   PD        0.261137    0.767618    0.265824     0.005394
AU906   AU        0.291570    0.732066    0.265179     0.007504
PD907   PD        0.292959    0.768844    0.298037     0.005394
AU908   AU        0.328558    0.732757    0.299722     0.007504
PD909   PD        0.327059    0.767088    0.265262     0.005394
PD910   PD        0.362686    0.732625    0.265538     0.005394
PD911   PD        0.362049    0.764273    0.298254     0.005394
PD912   PD        0.396320    0.733488    0.297065     0.005394
PD913   PD        0.396435    0.770097    0.268503     0.005394
AU914   AU        0.430270    0.730616    0.264708     0.007504
AU915   AU        0.430365    0.767595    0.299095     0.007504
PD916   PD        0.464026    0.734808    0.299184     0.005394
PD917   PD        0.461186    0.766931    0.264819     0.005394
AU918   AU        0.496934    0.733397    0.265343     0.007504
PD919   PD        0.497451    0.767116    0.299323     0.005394
PD920   PD        0.531489    0.735662    0.298105     0.005394
PD921   PD        0.530221    0.770864    0.265127     0.005394
AU922   AU        0.561652    0.731970    0.264807     0.007504
PD923   PD        0.564541    0.768093    0.296992     0.005394
AU924   AU        0.597219    0.732277    0.297155     0.007504
PD925   PD        0.601197    0.766736    0.265072     0.005394
PD926   PD        0.632666    0.734207    0.267949     0.005394
PD927   PD        0.627335    0.771346    0.301780     0.005394
PD928   PD        0.663145    0.735518    0.299259     0.005394
PD929   PD        0.263576    0.836536    0.331950     0.005394
PD930   PD        0.355932    0.857658    0.243388     0.005394
PD931   PD        0.363493    0.802874    0.268905     0.005394
PD932   PD        0.362665    0.839733    0.297176     0.005394
PD933   PD        0.396792    0.802976    0.299576     0.005394
PD934   PD        0.429546    0.802842    0.265772     0.005394
PD935   PD        0.462963    0.835677    0.263051     0.005394
PD936   PD        0.462665    0.800866    0.298546     0.005394
PD937   PD        0.492519    0.804136    0.267247     0.005394
PD938   PD        0.529596    0.874363    0.361381     0.005394
AU939   AU        0.530207    0.801861    0.299101     0.007504
PD940   PD        0.593155    0.806418    0.297553     0.005394
PD941   PD        0.294579    0.053738    0.362878     0.005394
PD942   PD        0.329749    0.051258    0.330484     0.005394
PD943   PD        0.363079    0.057541    0.368031     0.005394
PD944   PD        0.395077    0.053810    0.333022     0.005394
PD945   PD        0.427834    0.058108    0.365977     0.005394
PD946   PD        0.462941    0.059392    0.329135     0.005394
PD947   PD        0.495846    0.053641    0.365609     0.005394
PD948   PD        0.561967    0.016310    0.326777     0.005394
PD949   PD        0.561449    0.056535    0.366718     0.005394
PD950   PD        0.193762    0.128899    0.335253     0.005394
PD951   PD        0.228683    0.128179    0.363326     0.005394
PD952   PD        0.260125    0.093391    0.369329     0.005394
PD953   PD        0.259845    0.126074    0.330286     0.005394
PD954   PD        0.294832    0.094492    0.335445     0.005394
PD955   PD        0.295300    0.123688    0.365021     0.005394
PD956   PD        0.330262    0.090358    0.364966     0.005394
PD957   PD        0.330208    0.128128    0.332824     0.005394
PD958   PD        0.363187    0.091478    0.330239     0.005394
AU959   AU        0.361585    0.126215    0.365586     0.007504
AU960   AU        0.397825    0.090716    0.364612     0.007504
AU961   AU        0.396068    0.128126    0.331887     0.007504
PD962   PD        0.428865    0.091395    0.331179     0.005394
AU963   AU        0.428773    0.125582    0.364758     0.007504
AU964   AU        0.462225    0.090273    0.365015     0.007504
AU965   AU        0.462114    0.126906    0.334628     0.007504
PD966   PD        0.498584    0.092706    0.331527     0.005394
PD967   PD        0.493999    0.125299    0.365228     0.005394
PD968   PD        0.529440    0.090884    0.367316     0.005394
PD969   PD        0.530336    0.127584    0.332603     0.005394
PD970   PD        0.565195    0.091547    0.332372     0.005394
PD971   PD        0.561789    0.125143    0.364356     0.005394
PD972   PD        0.594760    0.092645    0.366801     0.005394
PD973   PD        0.596783    0.128802    0.334847     0.005394
AU974   AU        0.629971    0.125833    0.367225     0.007504
PD975   PD        0.660346    0.126850    0.332350     0.005394
PD976   PD        0.129253    0.200189    0.332359     0.005394
PD977   PD        0.165604    0.159149    0.332579     0.005394
PD978   PD        0.163068    0.196194    0.365578     0.005394
PD979   PD        0.194866    0.162285    0.367379     0.005394
PD980   PD        0.196549    0.196557    0.329527     0.005394
AU981   AU        0.228853    0.160997    0.331134     0.007504
PD982   PD        0.228544    0.198009    0.363474     0.005394
PD983   PD        0.263502    0.162229    0.365226     0.005394
AU984   AU        0.260966    0.194119    0.331157     0.007504
AU985   AU        0.295048    0.162406    0.330329     0.007504
PD986   PD        0.296973    0.196299    0.364011     0.005394
PD987   PD        0.329172    0.160762    0.364107     0.005394
AU988   AU        0.330690    0.197645    0.330403     0.007504
AU989   AU        0.363335    0.164017    0.331181     0.007504
AU990   AU        0.360945    0.195221    0.366626     0.007504
AU991   AU        0.395291    0.161786    0.364582     0.007504
AU992   AU        0.396678    0.196269    0.331954     0.007504
AU993   AU        0.428753    0.160248    0.330741     0.007504
AU994   AU        0.428502    0.197451    0.363931     0.007504
AU995   AU        0.460298    0.160871    0.364395     0.007504
AU996   AU        0.463088    0.197392    0.332237     0.007504
AU997   AU        0.495934    0.160350    0.334661     0.007504
AU998   AU        0.495724    0.197776    0.365574     0.007504
PD999   PD        0.527802    0.161497    0.369452     0.005394
PD1000   PD        0.527775    0.194813    0.330632     0.005394
PD1001   PD        0.563666    0.161570    0.333658     0.005394
AU1002   AU        0.563374    0.193478    0.368364     0.007504
PD1003   PD        0.596767    0.162742    0.366028     0.005394
PD1004   PD        0.596839    0.195785    0.333890     0.005394
PD1005   PD        0.631037    0.162242    0.333164     0.005394
AU1006   AU        0.630588    0.195780    0.367551     0.007504
AU1007   AU        0.662803    0.159116    0.367461     0.007504
AU1008   AU        0.663078    0.194898    0.334637     0.007504
PD1009   PD        0.696577    0.162176    0.333033     0.005394
PD1010   PD        0.695536    0.196430    0.365503     0.005394
PD1011   PD        0.731951    0.191624    0.332796     0.005394
PD1012   PD        0.096701    0.270968    0.364031     0.005394
PD1013   PD        0.128188    0.231885    0.361153     0.005394
AU1014   AU        0.128140    0.268928    0.329504     0.007504
PD1015   PD        0.161415    0.231813    0.332404     0.005394
AU1016   AU        0.162070    0.267461    0.366938     0.007504
PD1017   PD        0.196420    0.233569    0.365691     0.005394
PD1018   PD        0.194175    0.267633    0.332099     0.005394
PD1019   PD        0.231263    0.231980    0.331911     0.005394
PD1020   PD        0.227331    0.267549    0.363003     0.005394
PD1021   PD        0.262346    0.230806    0.363415     0.005394
AU1022   AU        0.262099    0.267148    0.331641     0.007504
AU1023   AU        0.296113    0.230227    0.329138     0.007504
AU1024   AU        0.294996    0.266537    0.363350     0.007504
AU1025   AU        0.327731    0.233730    0.366835     0.007504
AU1026   AU        0.331016    0.265209    0.330210     0.007504
AU1027   AU        0.362446    0.231585    0.332807     0.007504
AU1028   AU        0.363798    0.269523    0.364894     0.007504
AU1029   AU        0.396593    0.230812    0.363171     0.007504
AU1030   AU        0.395165    0.266580    0.331590     0.007504
AU1031   AU        0.428638    0.230712    0.330928     0.007504
AU1032   AU        0.430355    0.266978    0.364023     0.007504
AU1033   AU        0.462667    0.230709    0.366515     0.007504
AU1034   AU        0.461949    0.266920    0.331213     0.007504
PD1035   PD        0.494429    0.230778    0.331270     0.005394
AU1036   AU        0.493590    0.268035    0.363308     0.007504
AU1037   AU        0.529228    0.230766    0.367127     0.007504
PD1038   PD        0.529988    0.264908    0.333981     0.005394
PD1039   PD        0.568110    0.234187    0.329156     0.005394
PD1040   PD        0.564227    0.268458    0.363530     0.005394
PD1041   PD        0.600852    0.232445    0.368158     0.005394
PD1042   PD        0.596994    0.270101    0.331374     0.005394
PD1043   PD        0.632680    0.230623    0.332214     0.005394
PD1044   PD        0.634530    0.268011    0.366131     0.005394
AU1045   AU        0.665269    0.232117    0.366614     0.007504
PD1046   PD        0.665435    0.268246    0.331164     0.005394
PD1047   PD        0.696088    0.231243    0.330853     0.005394
PD1048   PD        0.696529    0.268776    0.365592     0.005394
PD1049   PD        0.728734    0.229005    0.364460     0.005394
PD1050   PD        0.728302    0.268133    0.330262     0.005394
PD1051   PD        0.761415    0.270999    0.364780     0.005394
PD1052   PD        0.064186    0.303796    0.364312     0.005394
PD1053   PD        0.064438    0.337407    0.330229     0.005394
PD1054   PD        0.099649    0.304863    0.327161     0.005394
PD1055   PD        0.094880    0.337773    0.365801     0.005394
PD1056   PD        0.127892    0.304094    0.364980     0.005394
AU1057   AU        0.130128    0.340830    0.331062     0.007504
PD1058   PD        0.161960    0.302146    0.331581     0.005394
AU1059   AU        0.162682    0.336977    0.363417     0.007504
AU1060   AU        0.194414    0.302348    0.364870     0.007504
AU1061   AU        0.194362    0.338276    0.331116     0.007504
AU1062   AU        0.229516    0.303045    0.329667     0.007504
AU1063   AU        0.227070    0.340197    0.363028     0.007504
AU1064   AU        0.261193    0.304773    0.362362     0.007504
AU1065   AU        0.261805    0.339117    0.330835     0.007504
AU1066   AU        0.294541    0.304021    0.329874     0.007504
AU1067   AU        0.295582    0.342596    0.363369     0.007504
PD1068   PD        0.329748    0.299638    0.365134     0.005394
AU1069   AU        0.327105    0.340213    0.330139     0.007504
AU1070   AU        0.361753    0.303764    0.330605     0.007504
AU1071   AU        0.361807    0.339263    0.364599     0.007504
AU1072   AU        0.397172    0.303815    0.363663     0.007504
AU1073   AU        0.395875    0.340585    0.329953     0.007504
AU1074   AU        0.429337    0.302950    0.330237     0.007504
AU1075   AU        0.427738    0.339778    0.363497     0.007504
AU1076   AU        0.463844    0.302814    0.362852     0.007504
AU1077   AU        0.463609    0.339315    0.331421     0.007504
AU1078   AU        0.496612    0.304124    0.330809     0.007504
AU1079   AU        0.496154    0.338749    0.363282     0.007504
AU1080   AU        0.528773    0.305897    0.364932     0.007504
AU1081   AU        0.528356    0.341908    0.330222     0.007504
PD1082   PD        0.562949    0.303139    0.330433     0.005394
AU1083   AU        0.563791    0.337981    0.368495     0.007504
PD1084   PD        0.598665    0.304808    0.365594     0.005394
PD1085   PD        0.597047    0.342195    0.331656     0.005394
PD1086   PD        0.633561    0.307210    0.329039     0.005394
PD1087   PD        0.633820    0.340301    0.365381     0.005394
AU1088   AU        0.665327    0.304220    0.363099     0.007504
AU1089   AU        0.665458    0.340919    0.330876     0.007504
AU1090   AU        0.696496    0.305798    0.331836     0.007504
AU1091   AU        0.696238    0.339722    0.364388     0.007504
PD1092   PD        0.728879    0.303972    0.364883     0.005394
AU1093   AU        0.728600    0.340484    0.331058     0.007504
AU1094   AU        0.761057    0.304967    0.333179     0.007504
PD1095   PD        0.763199    0.340115    0.366023     0.005394
PD1096   PD        0.797156    0.300092    0.366464     0.005394
PD1097   PD        0.794283    0.341768    0.333100     0.005394
PD1098   PD        0.065840    0.377298    0.367036     0.005394
PD1099   PD        0.064848    0.410742    0.332146     0.005394
PD1100   PD        0.095016    0.374899    0.330976     0.005394
AU1101   AU        0.095985    0.409639    0.364737     0.007504
AU1102   AU        0.127431    0.375702    0.363853     0.007504
AU1103   AU        0.127672    0.410416    0.332377     0.007504
AU1104   AU        0.161494    0.375797    0.332363     0.007504
AU1105   AU        0.160383    0.410684    0.365095     0.007504
AU1106   AU        0.194657    0.374220    0.364420     0.007504
AU1107   AU        0.194514    0.409716    0.332073     0.007504
AU1108   AU        0.227839    0.373097    0.332065     0.007504
AU1109   AU        0.228494    0.408485    0.365225     0.007504
AU1110   AU        0.261589    0.373975    0.362768     0.007504
AU1111   AU        0.260523    0.411887    0.331686     0.007504
AU1112   AU        0.293071    0.376514    0.328488     0.007504
AU1113   AU        0.295583    0.410513    0.365560     0.007504
AU1114   AU        0.329271    0.376170    0.365140     0.007504
AU1115   AU        0.327499    0.411558    0.329431     0.007504
AU1116   AU        0.361831    0.374339    0.330562     0.007504
AU1117   AU        0.361624    0.411668    0.364314     0.007504
AU1118   AU        0.394286    0.376197    0.364952     0.007504
AU1119   AU        0.395785    0.410413    0.330259     0.007504
AU1120   AU        0.428036    0.376520    0.332086     0.007504
AU1121   AU        0.427482    0.410305    0.364133     0.007504
AU1122   AU        0.461630    0.373286    0.363651     0.007504
AU1123   AU        0.462581    0.410320    0.330014     0.007504
AU1124   AU        0.497948    0.376830    0.331631     0.007504
AU1125   AU        0.495684    0.412137    0.363767     0.007504
AU1126   AU        0.531792    0.374595    0.365566     0.007504
AU1127   AU        0.529703    0.413415    0.331142     0.007504
AU1128   AU        0.563949    0.375302    0.330094     0.007504
AU1129   AU        0.563321    0.409901    0.363352     0.007504
AU1130   AU        0.596785    0.373219    0.365166     0.007504
AU1131   AU        0.598969    0.410954    0.330142     0.007504
AU1132   AU        0.631847    0.374883    0.330952     0.007504
AU1133   AU        0.631730    0.414076    0.364464     0.007504
PD1134   PD        0.665040    0.375932    0.366923     0.005394
AU1135   AU        0.665614    0.414807    0.331580     0.007504
AU1136   AU        0.697802    0.376583    0.332738     0.007504
AU1137   AU        0.696714    0.411937    0.366010     0.007504
PD1138   PD        0.729701    0.373298    0.363612     0.005394
PD1139   PD        0.731181    0.414152    0.332483     0.005394
PD1140   PD        0.759436    0.374199    0.330195     0.005394
PD1141   PD        0.762415    0.414299    0.364861     0.005394
AU1142   AU        0.794298    0.376689    0.363686     0.007504
PD1143   PD        0.793242    0.413584    0.333447     0.005394
PD1144   PD        0.062960    0.443520    0.363849     0.005394
AU1145   AU        0.065119    0.480406    0.333739     0.007504
AU1146   AU        0.097466    0.445680    0.330056     0.007504
AU1147   AU        0.096689    0.481461    0.363899     0.007504
AU1148   AU        0.127651    0.444869    0.365009     0.007504
AU1149   AU        0.128402    0.480417    0.332097     0.007504
AU1150   AU        0.161268    0.445038    0.332953     0.007504
AU1151   AU        0.159854    0.482809    0.363804     0.007504
AU1152   AU        0.193286    0.446913    0.364110     0.007504
AU1153   AU        0.194623    0.481761    0.330643     0.007504
AU1154   AU        0.227116    0.446251    0.332226     0.007504
AU1155   AU        0.226667    0.483004    0.364428     0.007504
AU1156   AU        0.261535    0.449042    0.366071     0.007504
AU1157   AU        0.261613    0.482450    0.331140     0.007504
AU1158   AU        0.293452    0.448333    0.330245     0.007504
AU1159   AU        0.296232    0.480925    0.364079     0.007504
AU1160   AU        0.328476    0.446464    0.363201     0.007504
AU1161   AU        0.327792    0.482018    0.330578     0.007504
AU1162   AU        0.362765    0.449381    0.330761     0.007504
AU1163   AU        0.361141    0.483051    0.363928     0.007504
AU1164   AU        0.394917    0.448566    0.365359     0.007504
AU1165   AU        0.395346    0.483766    0.328483     0.007504
AU1166   AU        0.432213    0.444845    0.330635     0.007504
AU1167   AU        0.429821    0.484665    0.364759     0.007504
AU1168   AU        0.464287    0.446099    0.364999     0.007504
AU1169   AU        0.463489    0.483352    0.331155     0.007504
AU1170   AU        0.495365    0.448734    0.330380     0.007504
AU1171   AU        0.499337    0.484391    0.365462     0.007504
AU1172   AU        0.529684    0.447165    0.365239     0.007504
AU1173   AU        0.532623    0.484192    0.331212     0.007504
AU1174   AU        0.563521    0.444990    0.331485     0.007504
AU1175   AU        0.565588    0.481874    0.364615     0.007504
AU1176   AU        0.599526    0.446968    0.361727     0.007504
AU1177   AU        0.597426    0.481353    0.328584     0.007504
AU1178   AU        0.632580    0.449203    0.330179     0.007504
AU1179   AU        0.633030    0.482845    0.363655     0.007504
AU1180   AU        0.663303    0.448616    0.364180     0.007504
AU1181   AU        0.665048    0.483714    0.329573     0.007504
PD1182   PD        0.698080    0.450810    0.330668     0.005394
AU1183   AU        0.696609    0.483855    0.366421     0.007504
AU1184   AU        0.730918    0.449536    0.365913     0.007504
PD1185   PD        0.729541    0.485165    0.332298     0.005394
PD1186   PD        0.762548    0.449391    0.331573     0.005394
PD1187   PD        0.762923    0.485539    0.364768     0.005394
PD1188   PD        0.797805    0.450074    0.361591     0.005394
PD1189   PD        0.793312    0.485665    0.329732     0.005394
PD1190   PD        0.061376    0.514574    0.365987     0.005394
PD1191   PD        0.064598    0.556017    0.330790     0.005394
PD1192   PD        0.095581    0.517717    0.331787     0.005394
PD1193   PD        0.095845    0.554728    0.364690     0.005394
AU1194   AU        0.127643    0.517867    0.363694     0.007504
PD1195   PD        0.127158    0.553187    0.331559     0.005394
PD1196   PD        0.161029    0.517548    0.331085     0.005394
AU1197   AU        0.160977    0.553238    0.365698     0.007504
AU1198   AU        0.193992    0.517030    0.363619     0.007504
PD1199   PD        0.197803    0.553300    0.332762     0.005394
AU1200   AU        0.228061    0.518159    0.332518     0.007504
AU1201   AU        0.228789    0.553014    0.363601     0.007504
AU1202   AU        0.261570    0.518087    0.363977     0.007504
AU1203   AU        0.260653    0.553509    0.331496     0.007504
AU1204   AU        0.292865    0.518568    0.330818     0.007504
AU1205   AU        0.296078    0.554726    0.366446     0.007504
AU1206   AU        0.328209    0.518545    0.362763     0.007504
AU1207   AU        0.328133    0.554869    0.329680     0.007504
AU1208   AU        0.361084    0.522155    0.329563     0.007504
AU1209   AU        0.362593    0.556168    0.362785     0.007504
AU1210   AU        0.396019    0.519511    0.362553     0.007504
AU1211   AU        0.397757    0.553540    0.329413     0.007504
AU1212   AU        0.429637    0.519506    0.329311     0.007504
AU1213   AU        0.430751    0.555644    0.364702     0.007504
AU1214   AU        0.463534    0.519896    0.362267     0.007504
AU1215   AU        0.463394    0.556079    0.329098     0.007504
AU1216   AU        0.497570    0.517164    0.332404     0.007504
AU1217   AU        0.497719    0.554511    0.364111     0.007504
AU1218   AU        0.532098    0.520745    0.364052     0.007504
AU1219   AU        0.531968    0.555328    0.330637     0.007504
AU1220   AU        0.565655    0.518362    0.329464     0.007504
AU1221   AU        0.565092    0.554577    0.363811     0.007504
AU1222   AU        0.599333    0.520970    0.363742     0.007504
AU1223   AU        0.599128    0.554772    0.329370     0.007504
AU1224   AU        0.631312    0.519697    0.329307     0.007504
AU1225   AU        0.631213    0.557228    0.366271     0.007504
AU1226   AU        0.664766    0.516455    0.364894     0.007504
AU1227   AU        0.664480    0.555768    0.331805     0.007504
AU1228   AU        0.698550    0.520829    0.329951     0.007504
AU1229   AU        0.696205    0.554885    0.365503     0.007504
AU1230   AU        0.729544    0.519795    0.366592     0.007504
AU1231   AU        0.728661    0.555938    0.332433     0.007504
PD1232   PD        0.760919    0.522544    0.330871     0.005394
AU1233   AU        0.762957    0.556189    0.363548     0.007504
PD1234   PD        0.795047    0.519536    0.362627     0.005394
PD1235   PD        0.794888    0.551009    0.330258     0.005394
PD1236   PD        0.060294    0.587089    0.365784     0.005394
PD1237   PD        0.096315    0.591571    0.332029     0.005394
PD1238   PD        0.094355    0.625348    0.366381     0.005394
PD1239   PD        0.128335    0.587938    0.363379     0.005394
AU1240   AU        0.129869    0.623186    0.332735     0.007504
PD1241   PD        0.161787    0.587902    0.329904     0.005394
AU1242   AU        0.163685    0.624611    0.365043     0.007504
AU1243   AU        0.193665    0.588171    0.365244     0.007504
PD1244   PD        0.195496    0.627855    0.331766     0.005394
AU1245   AU        0.227901    0.591873    0.329534     0.007504
AU1246   AU        0.226500    0.625914    0.366857     0.007504
AU1247   AU        0.261792    0.588950    0.366205     0.007504
PD1248   PD        0.258684    0.628064    0.332238     0.005394
AU1249   AU        0.295242    0.589516    0.331455     0.007504
AU1250   AU        0.295505    0.626619    0.365413     0.007504
AU1251   AU        0.328000    0.590707    0.365079     0.007504
AU1252   AU        0.327394    0.627964    0.330334     0.007504
AU1253   AU        0.362906    0.590344    0.330864     0.007504
AU1254   AU        0.362608    0.626314    0.364574     0.007504
AU1255   AU        0.396641    0.590166    0.364120     0.007504
AU1256   AU        0.396755    0.627102    0.331748     0.007504
AU1257   AU        0.428006    0.590601    0.330679     0.007504
AU1258   AU        0.428554    0.629613    0.364514     0.007504
AU1259   AU        0.461212    0.592138    0.363386     0.007504
AU1260   AU        0.462507    0.627534    0.331255     0.007504
AU1261   AU        0.499225    0.591738    0.328980     0.007504
AU1262   AU        0.497007    0.627297    0.364406     0.007504
PD1263   PD        0.531629    0.591437    0.363056     0.005394
AU1264   AU        0.531787    0.629020    0.330689     0.007504
AU1265   AU        0.566405    0.590903    0.332492     0.007504
AU1266   AU        0.566113    0.627269    0.364159     0.007504
PD1267   PD        0.599741    0.588869    0.363817     0.005394
AU1268   AU        0.599835    0.627949    0.329570     0.007504
AU1269   AU        0.633310    0.590933    0.330948     0.007504
AU1270   AU        0.632264    0.627718    0.364638     0.007504
AU1271   AU        0.665360    0.589779    0.364766     0.007504
AU1272   AU        0.665776    0.625817    0.331671     0.007504
PD1273   PD        0.698192    0.589927    0.330357     0.005394
AU1274   AU        0.697576    0.627525    0.364429     0.007504
AU1275   AU        0.728767    0.590995    0.363773     0.007504
AU1276   AU        0.728232    0.624752    0.330055     0.007504
PD1277   PD        0.762350    0.588805    0.330708     0.005394
PD1278   PD        0.763672    0.623344    0.363733     0.005394
PD1279   PD        0.796544    0.590331    0.366612     0.005394
PD1280   PD        0.130102    0.659117    0.365219     0.005394
PD1281   PD        0.132494    0.697269    0.333197     0.005394
AU1282   AU        0.161419    0.660018    0.331116     0.007504
PD1283   PD        0.160305    0.694684    0.365165     0.005394
PD1284   PD        0.193093    0.659288    0.366617     0.005394
PD1285   PD        0.193699    0.696400    0.331974     0.005394
AU1286   AU        0.226755    0.663706    0.331032     0.007504
PD1287   PD        0.228644    0.697262    0.364531     0.005394
AU1288   AU        0.261976    0.661626    0.364197     0.007504
PD1289   PD        0.261135    0.698802    0.329961     0.005394
AU1290   AU        0.293016    0.664659    0.330189     0.007504
AU1291   AU        0.294287    0.697993    0.362590     0.007504
AU1292   AU        0.325868    0.661837    0.362725     0.007504
AU1293   AU        0.328048    0.696953    0.331037     0.007504
AU1294   AU        0.361514    0.661140    0.331335     0.007504
AU1295   AU        0.360690    0.696918    0.363364     0.007504
AU1296   AU        0.394720    0.661624    0.362395     0.007504
AU1297   AU        0.394650    0.697242    0.331494     0.007504
AU1298   AU        0.430145    0.662252    0.330531     0.007504
PD1299   PD        0.428562    0.694723    0.362290     0.005394
AU1300   AU        0.463438    0.663261    0.362322     0.007504
AU1301   AU        0.463893    0.699758    0.330011     0.007504
AU1302   AU        0.498255    0.662915    0.328925     0.007504
AU1303   AU        0.497374    0.697201    0.365371     0.007504
AU1304   AU        0.532311    0.662286    0.364821     0.007504
PD1305   PD        0.531739    0.697991    0.333455     0.005394
PD1306   PD        0.565028    0.663808    0.328732     0.005394
AU1307   AU        0.564808    0.697576    0.363890     0.007504
AU1308   AU        0.597743    0.662110    0.363907     0.007504
AU1309   AU        0.597063    0.698021    0.330239     0.007504
PD1310   PD        0.632173    0.661162    0.330745     0.005394
PD1311   PD        0.632008    0.697920    0.362846     0.005394
AU1312   AU        0.665554    0.662160    0.363828     0.007504
AU1313   AU        0.663103    0.700311    0.331301     0.007504
AU1314   AU        0.697157    0.660825    0.330359     0.007504
PD1315   PD        0.696949    0.696924    0.362402     0.005394
AU1316   AU        0.729664    0.661555    0.364737     0.007504
PD1317   PD        0.736948    0.724782    0.291167     0.005394
PD1318   PD        0.162866    0.732567    0.330701     0.005394
PD1319   PD        0.193500    0.731074    0.363488     0.005394
AU1320   AU        0.196516    0.764776    0.331357     0.007504
PD1321   PD        0.227631    0.729756    0.333762     0.005394
PD1322   PD        0.228985    0.764236    0.366410     0.005394
PD1323   PD        0.264743    0.733642    0.365732     0.005394
PD1324   PD        0.261430    0.767713    0.332765     0.005394
PD1325   PD        0.297294    0.732626    0.332520     0.005394
PD1326   PD        0.294681    0.768854    0.363504     0.005394
AU1327   AU        0.329454    0.733442    0.363551     0.007504
PD1328   PD        0.330049    0.768090    0.332195     0.005394
AU1329   AU        0.363649    0.732046    0.330891     0.007504
PD1330   PD        0.363964    0.768982    0.364307     0.005394
PD1331   PD        0.396982    0.734535    0.364883     0.005394
AU1332   AU        0.397088    0.767255    0.330719     0.007504
AU1333   AU        0.428206    0.732096    0.330173     0.007504
PD1334   PD        0.431204    0.768075    0.365671     0.005394
PD1335   PD        0.464474    0.733000    0.363304     0.005394
AU1336   AU        0.465563    0.768308    0.332653     0.007504
AU1337   AU        0.499219    0.732825    0.333378     0.007504
PD1338   PD        0.498966    0.767028    0.367891     0.005394
AU1339   AU        0.532695    0.732947    0.365201     0.007504
AU1340   AU        0.531950    0.767581    0.333900     0.007504
PD1341   PD        0.565698    0.731609    0.331514     0.005394
AU1342   AU        0.566790    0.767313    0.365312     0.007504
AU1343   AU        0.595543    0.732874    0.363578     0.007504
PD1344   PD        0.595907    0.769422    0.331468     0.005394
AU1345   AU        0.629187    0.734001    0.329370     0.007504
PD1346   PD        0.629975    0.769451    0.361891     0.005394
AU1347   AU        0.663117    0.734021    0.362871     0.007504
PD1348   PD        0.662821    0.767224    0.330279     0.005394
PD1349   PD        0.699547    0.729724    0.332435     0.005394
PD1350   PD        0.261997    0.804385    0.364326     0.005394
PD1351   PD        0.297171    0.802368    0.332032     0.005394
PD1352   PD        0.296732    0.833085    0.370648     0.005394
PD1353   PD        0.330220    0.803457    0.364019     0.005394
PD1354   PD        0.325560    0.838223    0.331310     0.005394
PD1355   PD        0.364751    0.802129    0.331986     0.005394
PD1356   PD        0.362081    0.837411    0.364576     0.005394
PD1357   PD        0.397112    0.802527    0.365168     0.005394
PD1358   PD        0.396777    0.834652    0.333633     0.005394
AU1359   AU        0.430137    0.802707    0.332249     0.007504
PD1360   PD        0.430778    0.835794    0.365434     0.005394
PD1361   PD        0.461579    0.801731    0.365785     0.005394
PD1362   PD        0.462510    0.834436    0.332426     0.005394
PD1363   PD        0.497436    0.804845    0.333474     0.005394
PD1364   PD        0.495508    0.837061    0.366999     0.005394
AU1365   AU        0.530860    0.803594    0.367109     0.007504
PD1366   PD        0.532283    0.836064    0.332141     0.005394
AU1367   AU        0.563982    0.801924    0.331981     0.007504
PD1368   PD        0.561134    0.838006    0.361936     0.005394
PD1369   PD        0.598986    0.803572    0.365062     0.005394
PD1370   PD        0.266719    0.055076    0.398027     0.005394
PD1371   PD        0.298958    0.053489    0.434120     0.005394
PD1372   PD        0.331866    0.055690    0.398890     0.005394
PD1373   PD        0.362534    0.054692    0.432252     0.005394
PD1374   PD        0.394182    0.014754    0.429414     0.005394
AU1375   AU        0.394145    0.056123    0.399911     0.007504
AU1376   AU        0.426989    0.020516    0.397634     0.007504
PD1377   PD        0.430026    0.053754    0.432424     0.005394
PD1378   PD        0.463958    0.022230    0.429617     0.005394
PD1379   PD        0.460621    0.058100    0.398168     0.005394
AU1380   AU        0.495304    0.056998    0.430502     0.007504
AU1381   AU        0.528610    0.054962    0.397534     0.007504
PD1382   PD        0.559578    0.055714    0.430699     0.005394
PD1383   PD        0.592878    0.057276    0.403102     0.005394
PD1384   PD        0.161810    0.127032    0.428804     0.005394
PD1385   PD        0.159391    0.092104    0.465177     0.005394
PD1386   PD        0.195823    0.127388    0.396797     0.005394
PD1387   PD        0.228113    0.090376    0.399599     0.005394
PD1388   PD        0.228651    0.126847    0.430472     0.005394
PD1389   PD        0.262960    0.089876    0.431038     0.005394
PD1390   PD        0.262631    0.122754    0.402487     0.005394
PD1391   PD        0.296210    0.088475    0.398345     0.005394
PD1392   PD        0.294879    0.123529    0.434218     0.005394
AU1393   AU        0.328189    0.090615    0.431979     0.007504
PD1394   PD        0.329665    0.123952    0.399305     0.005394
PD1395   PD        0.363003    0.091171    0.397858     0.005394
AU1396   AU        0.363768    0.125284    0.431088     0.007504
PD1397   PD        0.394377    0.089600    0.429715     0.005394
AU1398   AU        0.394802    0.125600    0.397342     0.007504
PD1399   PD        0.428245    0.089690    0.400122     0.005394
AU1400   AU        0.428853    0.126848    0.428428     0.007504
PD1401   PD        0.463295    0.090393    0.431563     0.005394
AU1402   AU        0.462431    0.127226    0.396526     0.007504
PD1403   PD        0.493887    0.088874    0.395692     0.005394
PD1404   PD        0.495389    0.124737    0.430251     0.005394
PD1405   PD        0.529901    0.088552    0.433310     0.005394
AU1406   AU        0.528568    0.123721    0.398971     0.007504
PD1407   PD        0.562891    0.092774    0.397458     0.005394
PD1408   PD        0.566165    0.124869    0.434231     0.005394
PD1409   PD        0.599669    0.093690    0.433301     0.005394
AU1410   AU        0.596731    0.126926    0.398596     0.007504
PD1411   PD        0.631023    0.093519    0.400865     0.005394
AU1412   AU        0.631341    0.127591    0.431518     0.007504
PD1413   PD        0.692666    0.052748    0.421525     0.005394
PD1414   PD        0.664376    0.124794    0.401686     0.005394
PD1415   PD        0.698144    0.128054    0.434734     0.005394
PD1416   PD        0.098074    0.197948    0.433783     0.005394
PD1417   PD        0.128961    0.160732    0.431492     0.005394
PD1418   PD        0.126953    0.198928    0.395107     0.005394
PD1419   PD        0.162113    0.163693    0.399577     0.005394
AU1420   AU        0.162002    0.196374    0.431510     0.007504
PD1421   PD        0.196482    0.163755    0.432855     0.005394
PD1422   PD        0.194918    0.198036    0.398945     0.005394
PD1423   PD        0.228416    0.163910    0.397992     0.005394
PD1424   PD        0.225862    0.194498    0.431731     0.005394
PD1425   PD        0.260603    0.160595    0.434718     0.005394
PD1426   PD        0.262745    0.193626    0.398257     0.005394
PD1427   PD        0.297246    0.160501    0.396913     0.005394
AU1428   AU        0.298230    0.196686    0.430943     0.007504
AU1429   AU        0.328406    0.158156    0.432841     0.007504
AU1430   AU        0.332132    0.194741    0.399501     0.007504
AU1431   AU        0.362854    0.159994    0.399061     0.007504
AU1432   AU        0.362528    0.193516    0.431550     0.007504
AU1433   AU        0.396499    0.159959    0.432244     0.007504
AU1434   AU        0.393159    0.194817    0.398899     0.007504
AU1435   AU        0.428709    0.160348    0.398144     0.007504
AU1436   AU        0.428261    0.196037    0.431852     0.007504
AU1437   AU        0.462751    0.160374    0.431780     0.007504
AU1438   AU        0.462103    0.194386    0.399279     0.007504
AU1439   AU        0.496907    0.161644    0.397038     0.007504
AU1440   AU        0.494882    0.195895    0.431871     0.007504
AU1441   AU        0.531740    0.162720    0.432106     0.007504
AU1442   AU        0.528985    0.197763    0.398717     0.007504
PD1443   PD        0.563657    0.158776    0.400797     0.005394
AU1444   AU        0.564744    0.197375    0.432305     0.007504
AU1445   AU        0.596929    0.162332    0.432128     0.007504
AU1446   AU        0.598285    0.195408    0.399837     0.007504
AU1447   AU        0.631034    0.159880    0.398652     0.007504
AU1448   AU        0.630959    0.197089    0.433015     0.007504
PD1449   PD        0.662418    0.159891    0.430583     0.005394
AU1450   AU        0.662987    0.197189    0.400136     0.007504
PD1451   PD        0.694212    0.162275    0.400019     0.005394
AU1452   AU        0.695772    0.198098    0.431571     0.007504
PD1453   PD        0.728672    0.165667    0.430188     0.005394
PD1454   PD        0.729760    0.198419    0.397260     0.005394
PD1455   PD        0.783366    0.176130    0.389033     0.005394
PD1456   PD        0.062750    0.267692    0.399654     0.005394
PD1457   PD        0.094557    0.235236    0.400346     0.005394
PD1458   PD        0.099637    0.266123    0.433682     0.005394
AU1459   AU        0.131005    0.233157    0.433200     0.007504
AU1460   AU        0.129701    0.268206    0.397927     0.007504
AU1461   AU        0.162380    0.232245    0.398599     0.007504
AU1462   AU        0.160921    0.267883    0.430880     0.007504
AU1463   AU        0.192890    0.231845    0.431948     0.007504
AU1464   AU        0.195849    0.267337    0.399068     0.007504
PD1465   PD        0.228257    0.232493    0.397647     0.005394
AU1466   AU        0.227627    0.265484    0.433573     0.007504
PD1467   PD        0.260264    0.230747    0.436224     0.005394
AU1468   AU        0.260517    0.270482    0.397072     0.007504
AU1469   AU        0.295322    0.231937    0.397991     0.007504
AU1470   AU        0.293104    0.266416    0.432667     0.007504
AU1471   AU        0.327491    0.231570    0.432666     0.007504
AU1472   AU        0.329019    0.267018    0.399329     0.007504
AU1473   AU        0.363856    0.232701    0.397426     0.007504
AU1474   AU        0.362327    0.267800    0.432569     0.007504
AU1475   AU        0.393688    0.231645    0.432562     0.007504
AU1476   AU        0.397020    0.267525    0.399466     0.007504
AU1477   AU        0.428692    0.229063    0.398101     0.007504
AU1478   AU        0.429015    0.266216    0.432534     0.007504
AU1479   AU        0.462121    0.229206    0.432221     0.007504
AU1480   AU        0.462783    0.268482    0.399208     0.007504
AU1481   AU        0.495043    0.231279    0.400013     0.007504
AU1482   AU        0.495969    0.268265    0.432854     0.007504
AU1483   AU        0.528978    0.231248    0.431747     0.007504
AU1484   AU        0.528588    0.266079    0.400096     0.007504
AU1485   AU        0.565326    0.230877    0.399686     0.007504
AU1486   AU        0.564047    0.265661    0.434223     0.007504
AU1487   AU        0.598782    0.232869    0.433297     0.007504
AU1488   AU        0.597900    0.267836    0.398747     0.007504
AU1489   AU        0.633156    0.230963    0.400706     0.007504
AU1490   AU        0.632323    0.268086    0.431784     0.007504
AU1491   AU        0.664624    0.232796    0.433034     0.007504
AU1492   AU        0.665619    0.267274    0.400506     0.007504
PD1493   PD        0.696387    0.231961    0.399500     0.005394
AU1494   AU        0.696856    0.268454    0.433139     0.007504
AU1495   AU        0.729706    0.232548    0.431008     0.007504
PD1496   PD        0.728741    0.267469    0.397609     0.005394
PD1497   PD        0.761271    0.234939    0.397723     0.005394
PD1498   PD        0.760526    0.268878    0.430101     0.005394
PD1499   PD        0.792445    0.267322    0.397023     0.005394
PD1500   PD        0.065945    0.302957    0.433238     0.005394
PD1501   PD        0.065716    0.339863    0.396583     0.005394
AU1502   AU        0.098103    0.302415    0.397401     0.007504
PD1503   PD        0.097962    0.341400    0.430648     0.005394
AU1504   AU        0.127521    0.302504    0.432014     0.007504
AU1505   AU        0.128322    0.340012    0.397761     0.007504
AU1506   AU        0.160516    0.303524    0.399017     0.007504
AU1507   AU        0.161515    0.338035    0.430640     0.007504
AU1508   AU        0.193446    0.300511    0.430645     0.007504
AU1509   AU        0.194064    0.339790    0.397153     0.007504
PD1510   PD        0.225744    0.303674    0.397595     0.005394
AU1511   AU        0.225880    0.339412    0.431189     0.007504
AU1512   AU        0.260020    0.303113    0.432132     0.007504
PD1513   PD        0.261367    0.336448    0.398044     0.005394
AU1514   AU        0.295907    0.302334    0.397678     0.007504
AU1515   AU        0.294658    0.338298    0.432841     0.007504
AU1516   AU        0.329239    0.302741    0.429977     0.007504
AU1517   AU        0.326342    0.339753    0.399335     0.007504
AU1518   AU        0.360814    0.303300    0.398836     0.007504
AU1519   AU        0.361999    0.338838    0.431009     0.007504
AU1520   AU        0.394555    0.303810    0.432477     0.007504
AU1521   AU        0.395791    0.339160    0.399147     0.007504
AU1522   AU        0.430582    0.302502    0.398217     0.007504
AU1523   AU        0.432121    0.337361    0.432274     0.007504
AU1524   AU        0.463299    0.304118    0.433017     0.007504
AU1525   AU        0.463445    0.340289    0.397155     0.007504
AU1526   AU        0.494541    0.301715    0.398264     0.007504
AU1527   AU        0.496657    0.336131    0.432713     0.007504
AU1528   AU        0.530181    0.300970    0.430573     0.007504
AU1529   AU        0.529813    0.338924    0.398549     0.007504
AU1530   AU        0.562219    0.303424    0.399210     0.007504
AU1531   AU        0.562509    0.338086    0.431930     0.007504
AU1532   AU        0.598571    0.303391    0.433046     0.007504
AU1533   AU        0.599436    0.338175    0.400406     0.007504
AU1534   AU        0.632513    0.302120    0.399359     0.007504
AU1535   AU        0.633563    0.340634    0.431152     0.007504
AU1536   AU        0.666332    0.304351    0.433307     0.007504
AU1537   AU        0.663527    0.338474    0.396924     0.007504
AU1538   AU        0.696719    0.303585    0.398211     0.007504
PD1539   PD        0.695880    0.339215    0.430323     0.005394
AU1540   AU        0.728319    0.302529    0.430972     0.007504
AU1541   AU        0.730486    0.339258    0.399873     0.007504
PD1542   PD        0.762261    0.305338    0.398006     0.005394
PD1543   PD        0.764063    0.338486    0.431754     0.005394
PD1544   PD        0.796341    0.302716    0.432847     0.005394
PD1545   PD        0.793927    0.340817    0.397138     0.005394
PD1546   PD        0.030035    0.412282    0.433422     0.005394
PD1547   PD        0.066810    0.376242    0.431914     0.005394
PD1548   PD        0.063698    0.412810    0.402175     0.005394
AU1549   AU        0.097293    0.376560    0.398824     0.007504
AU1550   AU        0.097131    0.409713    0.432010     0.007504
PD1551   PD        0.129760    0.372992    0.431028     0.005394
AU1552   AU        0.129351    0.410924    0.397315     0.007504
AU1553   AU        0.160743    0.375090    0.397820     0.007504
AU1554   AU        0.162374    0.410505    0.432539     0.007504
AU1555   AU        0.195643    0.375549    0.431480     0.007504
AU1556   AU        0.194293    0.410237    0.397492     0.007504
AU1557   AU        0.227169    0.373776    0.397537     0.007504
AU1558   AU        0.226253    0.411681    0.431927     0.007504
AU1559   AU        0.260030    0.376769    0.431819     0.007504
AU1560   AU        0.259623    0.411078    0.398300     0.007504
AU1561   AU        0.293276    0.376627    0.398999     0.007504
AU1562   AU        0.295522    0.409371    0.432031     0.007504
AU1563   AU        0.329323    0.373539    0.431948     0.007504
AU1564   AU        0.330662    0.413686    0.400100     0.007504
AU1565   AU        0.362112    0.374103    0.398300     0.007504
AU1566   AU        0.361731    0.412587    0.433211     0.007504
AU1567   AU        0.395844    0.375392    0.432850     0.007504
AU1568   AU        0.396594    0.410446    0.400459     0.007504
AU1569   AU        0.429882    0.374022    0.399578     0.007504
AU1570   AU        0.429924    0.410566    0.431539     0.007504
AU1571   AU        0.464469    0.378264    0.431395     0.007504
AU1572   AU        0.462525    0.409316    0.396589     0.007504
AU1573   AU        0.499703    0.374461    0.400214     0.007504
AU1574   AU        0.498080    0.411909    0.430118     0.007504
AU1575   AU        0.532294    0.374159    0.432676     0.007504
AU1576   AU        0.533347    0.411100    0.399618     0.007504
AU1577   AU        0.563739    0.374926    0.397472     0.007504
AU1578   AU        0.565310    0.413377    0.432949     0.007504
AU1579   AU        0.599074    0.375254    0.430706     0.007504
AU1580   AU        0.597871    0.411822    0.397248     0.007504
AU1581   AU        0.631172    0.375234    0.397884     0.007504
AU1582   AU        0.631437    0.410492    0.431722     0.007504
AU1583   AU        0.666174    0.376801    0.431431     0.007504
AU1584   AU        0.664570    0.414607    0.398342     0.007504
AU1585   AU        0.697203    0.373988    0.397530     0.007504
AU1586   AU        0.698115    0.413324    0.431988     0.007504
AU1587   AU        0.729803    0.374862    0.430483     0.007504
AU1588   AU        0.729944    0.413068    0.399217     0.007504
PD1589   PD        0.760885    0.377472    0.399678     0.005394
PD1590   PD        0.762296    0.413000    0.431838     0.005394
PD1591   PD        0.792508    0.377503    0.430257     0.005394
PD1592   PD        0.793892    0.415144    0.396323     0.005394
PD1593   PD        0.862442    0.450583    0.430172     0.005394
PD1594   PD        0.028747    0.447028    0.401073     0.005394
PD1595   PD        0.029156    0.484605    0.431026     0.005394
PD1596   PD        0.063857    0.446013    0.433929     0.005394
PD1597   PD        0.065881    0.484070    0.398337     0.005394
AU1598   AU        0.095160    0.445141    0.397474     0.007504
AU1599   AU        0.095411    0.481333    0.430610     0.007504
AU1600   AU        0.130363    0.446459    0.430860     0.007504
PD1601   PD        0.127692    0.482068    0.398760     0.005394
AU1602   AU        0.163083    0.447160    0.397078     0.007504
AU1603   AU        0.160985    0.482867    0.431988     0.007504
AU1604   AU        0.195293    0.446588    0.431544     0.007504
AU1605   AU        0.192466    0.481873    0.396771     0.007504
AU1606   AU        0.226135    0.448359    0.396528     0.007504
AU1607   AU        0.228027    0.482751    0.432235     0.007504
AU1608   AU        0.259332    0.445222    0.431356     0.007504
AU1609   AU        0.262184    0.481685    0.399438     0.007504
AU1610   AU        0.293871    0.447380    0.398657     0.007504
AU1611   AU        0.295139    0.482851    0.433798     0.007504
AU1612   AU        0.327637    0.449194    0.430737     0.007504
AU1613   AU        0.327116    0.483629    0.398473     0.007504
AU1614   AU        0.361525    0.448292    0.397793     0.007504
AU1615   AU        0.364438    0.482046    0.430616     0.007504
AU1616   AU        0.397216    0.448451    0.433425     0.007504
AU1617   AU        0.394562    0.484904    0.396877     0.007504
AU1618   AU        0.430522    0.447629    0.396289     0.007504
AU1619   AU        0.428853    0.483892    0.430726     0.007504
AU1620   AU        0.463347    0.445166    0.430121     0.007504
AU1621   AU        0.464086    0.483734    0.396083     0.007504
AU1622   AU        0.498429    0.446184    0.397756     0.007504
AU1623   AU        0.498831    0.483392    0.431690     0.007504
AU1624   AU        0.531898    0.448296    0.430736     0.007504
AU1625   AU        0.531477    0.485923    0.396937     0.007504
AU1626   AU        0.566033    0.446162    0.398341     0.007504
AU1627   AU        0.566397    0.483123    0.432338     0.007504
AU1628   AU        0.600633    0.447925    0.431835     0.007504
AU1629   AU        0.598168    0.483041    0.398125     0.007504
AU1630   AU        0.631808    0.449692    0.397791     0.007504
AU1631   AU        0.631925    0.484699    0.433512     0.007504
AU1632   AU        0.665458    0.447972    0.430403     0.007504
AU1633   AU        0.664038    0.481719    0.398759     0.007504
AU1634   AU        0.699302    0.449227    0.397235     0.007504
AU1635   AU        0.697801    0.483463    0.430269     0.007504
AU1636   AU        0.730140    0.448080    0.432314     0.007504
PD1637   PD        0.731574    0.483177    0.398723     0.005394
AU1638   AU        0.762848    0.449305    0.399745     0.007504
AU1639   AU        0.763918    0.483836    0.433665     0.007504
AU1640   AU        0.795037    0.447599    0.432162     0.007504
PD1641   PD        0.795647    0.483514    0.397206     0.005394
PD1642   PD        0.828606    0.447426    0.400418     0.005394
PD1643   PD        0.827851    0.483206    0.433832     0.005394
PD1644   PD        0.064742    0.518936    0.430969     0.005394
PD1645   PD        0.062287    0.552871    0.398212     0.005394
AU1646   AU        0.095703    0.516881    0.399152     0.007504
AU1647   AU        0.094155    0.553562    0.433829     0.007504
AU1648   AU        0.128129    0.517411    0.433073     0.007504
AU1649   AU        0.127202    0.554658    0.398711     0.007504
AU1650   AU        0.159736    0.517811    0.398307     0.007504
AU1651   AU        0.160604    0.554541    0.432637     0.007504
AU1652   AU        0.194009    0.518080    0.430380     0.007504
AU1653   AU        0.195011    0.553718    0.397838     0.007504
AU1654   AU        0.227708    0.516756    0.397345     0.007504
PD1655   PD        0.228042    0.553201    0.431738     0.005394
AU1656   AU        0.260910    0.519242    0.431236     0.007504
AU1657   AU        0.261356    0.554738    0.399965     0.007504
AU1658   AU        0.292134    0.518626    0.398344     0.007504
AU1659   AU        0.293796    0.553086    0.430841     0.007504
AU1660   AU        0.331394    0.517784    0.432652     0.007504
AU1661   AU        0.327513    0.555464    0.398553     0.007504
AU1662   AU        0.360650    0.521187    0.398745     0.007504
AU1663   AU        0.362387    0.555111    0.433429     0.007504
AU1664   AU        0.395603    0.519579    0.430256     0.007504
AU1665   AU        0.394646    0.555685    0.398419     0.007504
AU1666   AU        0.430048    0.518941    0.397594     0.007504
AU1667   AU        0.429398    0.556301    0.428862     0.007504
AU1668   AU        0.463720    0.520210    0.431213     0.007504
AU1669   AU        0.464085    0.554679    0.398065     0.007504
AU1670   AU        0.499046    0.520618    0.397831     0.007504
AU1671   AU        0.498079    0.557754    0.430687     0.007504
AU1672   AU        0.532717    0.521783    0.432511     0.007504
AU1673   AU        0.531567    0.557349    0.397564     0.007504
AU1674   AU        0.565638    0.520805    0.396188     0.007504
AU1675   AU        0.567154    0.556594    0.431096     0.007504
AU1676   AU        0.600025    0.518887    0.433754     0.007504
AU1677   AU        0.598963    0.555650    0.398253     0.007504
AU1678   AU        0.631884    0.519521    0.399668     0.007504
AU1679   AU        0.633703    0.555569    0.432404     0.007504
AU1680   AU        0.666387    0.519515    0.432746     0.007504
AU1681   AU        0.665506    0.553742    0.398912     0.007504
AU1682   AU        0.696714    0.520122    0.398736     0.007504
AU1683   AU        0.697688    0.555330    0.431926     0.007504
PD1684   PD        0.732924    0.518751    0.432385     0.005394
AU1685   AU        0.729770    0.554740    0.397892     0.007504
AU1686   AU        0.763230    0.521411    0.397792     0.007504
AU1687   AU        0.763840    0.555281    0.432899     0.007504
PD1688   PD        0.795225    0.516269    0.434004     0.005394
AU1689   AU        0.795376    0.553901    0.398845     0.007504
PD1690   PD        0.061469    0.589764    0.436118     0.005394
PD1691   PD        0.062237    0.624294    0.400829     0.005394
AU1692   AU        0.093774    0.590316    0.398740     0.007504
PD1693   PD        0.094897    0.623879    0.433621     0.005394
AU1694   AU        0.127892    0.587807    0.431141     0.007504
PD1695   PD        0.128186    0.623495    0.397521     0.005394
PD1696   PD        0.159491    0.589105    0.396269     0.005394
PD1697   PD        0.159791    0.625047    0.429920     0.005394
PD1698   PD        0.194413    0.590544    0.430652     0.005394
PD1699   PD        0.194735    0.625160    0.400002     0.005394
AU1700   AU        0.227025    0.590774    0.397830     0.007504
AU1701   AU        0.229229    0.624222    0.430212     0.007504
AU1702   AU        0.262271    0.590770    0.430193     0.007504
AU1703   AU        0.261427    0.627025    0.396615     0.007504
AU1704   AU        0.292983    0.591534    0.397920     0.007504
AU1705   AU        0.293162    0.626859    0.432423     0.007504
AU1706   AU        0.326555    0.591806    0.431267     0.007504
AU1707   AU        0.328549    0.626021    0.397479     0.007504
AU1708   AU        0.362849    0.592393    0.397160     0.007504
AU1709   AU        0.364679    0.627542    0.431360     0.007504
AU1710   AU        0.395352    0.590426    0.430037     0.007504
AU1711   AU        0.395674    0.628384    0.398134     0.007504
AU1712   AU        0.428441    0.593645    0.396237     0.007504
AU1713   AU        0.430412    0.625847    0.431908     0.007504
AU1714   AU        0.464358    0.591969    0.432225     0.007504
AU1715   AU        0.465228    0.626930    0.397910     0.007504
AU1716   AU        0.496666    0.591562    0.396206     0.007504
AU1717   AU        0.498050    0.626159    0.429403     0.007504
AU1718   AU        0.532978    0.592422    0.430918     0.007504
AU1719   AU        0.531313    0.626636    0.396162     0.007504
AU1720   AU        0.566781    0.593110    0.396709     0.007504
AU1721   AU        0.565576    0.627707    0.429829     0.007504
AU1722   AU        0.600960    0.591683    0.430139     0.007504
AU1723   AU        0.598094    0.628805    0.396355     0.007504
AU1724   AU        0.632603    0.589556    0.398550     0.007504
AU1725   AU        0.631609    0.627527    0.432023     0.007504
AU1726   AU        0.665673    0.590202    0.431418     0.007504
AU1727   AU        0.665406    0.626502    0.396611     0.007504
AU1728   AU        0.698161    0.588894    0.397719     0.007504
AU1729   AU        0.698002    0.626252    0.429409     0.007504
PD1730   PD        0.730211    0.592253    0.431271     0.005394
AU1731   AU        0.729360    0.626078    0.396213     0.007504
PD1732   PD        0.761494    0.591529    0.397667     0.005394
PD1733   PD        0.761160    0.627510    0.432429     0.005394
PD1734   PD        0.799483    0.586508    0.431346     0.005394
PD1735   PD        0.794859    0.627036    0.397403     0.005394
PD1736   PD        0.098273    0.660108    0.398844     0.005394
PD1737   PD        0.096033    0.696671    0.429845     0.005394
PD1738   PD        0.128167    0.656903    0.433255     0.005394
PD1739   PD        0.126871    0.692397    0.398997     0.005394
AU1740   AU        0.161731    0.660813    0.401194     0.007504
PD1741   PD        0.161911    0.694533    0.432071     0.005394
AU1742   AU        0.196597    0.658434    0.432563     0.007504
PD1743   PD        0.193698    0.697410    0.399088     0.005394
PD1744   PD        0.226445    0.661595    0.398123     0.005394
AU1745   AU        0.229135    0.695640    0.433195     0.007504
AU1746   AU        0.259859    0.660588    0.432670     0.007504
PD1747   PD        0.262225    0.695766    0.397801     0.005394
AU1748   AU        0.295078    0.663361    0.398083     0.007504
AU1749   AU        0.292996    0.696155    0.432249     0.007504
AU1750   AU        0.327905    0.664073    0.431694     0.007504
PD1751   PD        0.327092    0.696982    0.397196     0.005394
AU1752   AU        0.361255    0.662668    0.397109     0.007504
AU1753   AU        0.364119    0.697199    0.430556     0.007504
AU1754   AU        0.397966    0.664378    0.431558     0.007504
AU1755   AU        0.393770    0.696178    0.395639     0.007504
AU1756   AU        0.430370    0.661016    0.396463     0.007504
AU1757   AU        0.429691    0.697956    0.430258     0.007504
AU1758   AU        0.465140    0.662344    0.430278     0.007504
AU1759   AU        0.464096    0.697328    0.398217     0.007504
AU1760   AU        0.497375    0.663210    0.398885     0.007504
AU1761   AU        0.498139    0.697201    0.432156     0.007504
AU1762   AU        0.532248    0.663043    0.431941     0.007504
AU1763   AU        0.531478    0.697869    0.397575     0.007504
AU1764   AU        0.564196    0.662429    0.397531     0.007504
AU1765   AU        0.562694    0.698185    0.430024     0.007504
PD1766   PD        0.599521    0.661044    0.432550     0.005394
PD1767   PD        0.596750    0.697015    0.396139     0.005394
AU1768   AU        0.632434    0.661268    0.397780     0.007504
PD1769   PD        0.631353    0.700351    0.429288     0.005394
PD1770   PD        0.665696    0.663209    0.433373     0.005394
PD1771   PD        0.663242    0.698724    0.395146     0.005394
PD1772   PD        0.694656    0.664484    0.396821     0.005394
PD1773   PD        0.696551    0.698778    0.433324     0.005394
PD1774   PD        0.728636    0.663858    0.428075     0.005394
PD1775   PD        0.728583    0.695500    0.401212     0.005394
PD1776   PD        0.762004    0.660523    0.399923     0.005394
PD1777   PD        0.761932    0.697073    0.432380     0.005394
PD1778   PD        0.128444    0.730621    0.432584     0.005394
PD1779   PD        0.160105    0.732529    0.398254     0.005394
PD1780   PD        0.159783    0.767807    0.434707     0.005394
AU1781   AU        0.195371    0.729275    0.432707     0.007504
PD1782   PD        0.194327    0.765512    0.401320     0.005394
AU1783   AU        0.227197    0.730974    0.399847     0.007504
PD1784   PD        0.229407    0.767203    0.430993     0.005394
PD1785   PD        0.260145    0.732014    0.430221     0.005394
PD1786   PD        0.262946    0.767118    0.396532     0.005394
PD1787   PD        0.294835    0.735511    0.398359     0.005394
PD1788   PD        0.293140    0.767614    0.433352     0.005394
AU1789   AU        0.331086    0.731500    0.432403     0.007504
PD1790   PD        0.329269    0.767375    0.402011     0.005394
PD1791   PD        0.361075    0.730384    0.396942     0.005394
AU1792   AU        0.363560    0.767957    0.432334     0.007504
PD1793   PD        0.395285    0.733363    0.432384     0.005394
AU1794   AU        0.396552    0.768384    0.399052     0.007504
PD1795   PD        0.429356    0.730570    0.397159     0.005394
AU1796   AU        0.430145    0.766819    0.433011     0.007504
PD1797   PD        0.464450    0.735243    0.431946     0.005394
AU1798   AU        0.463360    0.768040    0.399257     0.007504
AU1799   AU        0.499542    0.732688    0.398143     0.007504
AU1800   AU        0.497513    0.767142    0.431111     0.007504
AU1801   AU        0.531493    0.732727    0.430722     0.007504
AU1802   AU        0.532857    0.766702    0.396879     0.007504
AU1803   AU        0.564755    0.733676    0.398105     0.007504
AU1804   AU        0.564682    0.767621    0.430073     0.007504
AU1805   AU        0.598773    0.734431    0.431822     0.007504
PD1806   PD        0.599423    0.770234    0.396912     0.005394
AU1807   AU        0.629031    0.733508    0.394600     0.007504
AU1808   AU        0.630230    0.768485    0.432953     0.007504
PD1809   PD        0.662325    0.731300    0.430052     0.005394
AU1810   AU        0.660796    0.767094    0.396863     0.007504
PD1811   PD        0.697097    0.731957    0.401975     0.005394
PD1812   PD        0.697394    0.766328    0.433978     0.005394
PD1813   PD        0.729750    0.729984    0.435027     0.005394
PD1814   PD        0.209805    0.831562    0.432613     0.005394
PD1815   PD        0.226079    0.805045    0.393003     0.005394
PD1816   PD        0.259656    0.805094    0.435707     0.005394
PD1817   PD        0.262354    0.836702    0.398961     0.005394
PD1818   PD        0.294872    0.801924    0.399126     0.005394
PD1819   PD        0.295489    0.835156    0.430695     0.005394
PD1820   PD        0.331050    0.799790    0.431550     0.005394
PD1821   PD        0.329801    0.833331    0.399443     0.005394
PD1822   PD        0.363813    0.801721    0.397728     0.005394
PD1823   PD        0.365932    0.838489    0.431294     0.005394
AU1824   AU        0.396834    0.801776    0.431292     0.007504
PD1825   PD        0.398780    0.841486    0.397852     0.005394
AU1826   AU        0.428813    0.803644    0.398224     0.007504
AU1827   AU        0.429054    0.836549    0.430119     0.007504
AU1828   AU        0.462747    0.802144    0.431152     0.007504
AU1829   AU        0.463735    0.836141    0.398967     0.007504
AU1830   AU        0.497943    0.801604    0.398660     0.007504
PD1831   PD        0.496469    0.839227    0.429036     0.005394
PD1832   PD        0.529921    0.804036    0.429489     0.005394
PD1833   PD        0.530253    0.839288    0.397167     0.005394
PD1834   PD        0.563145    0.801712    0.397449     0.005394
PD1835   PD        0.562518    0.841033    0.429602     0.005394
PD1836   PD        0.597878    0.801211    0.427191     0.005394
PD1837   PD        0.595408    0.837543    0.395415     0.005394
PD1838   PD        0.630217    0.802858    0.397769     0.005394
PD1839   PD        0.664840    0.799913    0.431010     0.005394
PD1840   PD        0.396472    0.871545    0.430859     0.005394
PD1841   PD        0.430596    0.869367    0.397121     0.005394
PD1842   PD        0.463498    0.874857    0.430462     0.005394
PD1843   PD        0.228533    0.016207    0.470303     0.005394
PD1844   PD        0.294297    0.054857    0.497992     0.005394
PD1845   PD        0.329925    0.056441    0.465385     0.005394
PD1846   PD        0.363530    0.020203    0.466644     0.005394
PD1847   PD        0.362193    0.057555    0.497410     0.005394
PD1848   PD        0.394811    0.022262    0.499852     0.005394
PD1849   PD        0.396079    0.053673    0.463050     0.005394
PD1850   PD        0.440497    0.000714    0.462247     0.005394
PD1851   PD        0.431487    0.053369    0.494358     0.005394
PD1852   PD        0.467729    0.020806    0.496984     0.005394
PD1853   PD        0.463005    0.054711    0.464654     0.005394
PD1854   PD        0.498215    0.018482    0.461998     0.005394
PD1855   PD        0.498411    0.057869    0.496151     0.005394
PD1856   PD        0.527417    0.051655    0.462583     0.005394
PD1857   PD        0.561916    0.057636    0.499569     0.005394
PD1858   PD        0.561391    0.022233    0.467152     0.005394
PD1859   PD        0.165132    0.124844    0.501593     0.005394
PD1860   PD        0.194734    0.056827    0.463218     0.005394
PD1861   PD        0.195027    0.123545    0.473699     0.005394
PD1862   PD        0.229874    0.090005    0.462895     0.005394
PD1863   PD        0.230955    0.123276    0.500350     0.005394
PD1864   PD        0.262655    0.089643    0.499522     0.005394
PD1865   PD        0.262081    0.126426    0.466247     0.005394
PD1866   PD        0.296286    0.088116    0.468607     0.005394
AU1867   AU        0.295389    0.124811    0.500659     0.007504
PD1868   PD        0.327484    0.091859    0.500016     0.005394
AU1869   AU        0.329516    0.124632    0.464638     0.007504
PD1870   PD        0.363176    0.089910    0.464451     0.005394
PD1871   PD        0.361428    0.124614    0.498814     0.005394
PD1872   PD        0.395594    0.087314    0.497073     0.005394
PD1873   PD        0.395658    0.124411    0.464474     0.005394
PD1874   PD        0.427932    0.091343    0.461838     0.005394
PD1875   PD        0.431116    0.122406    0.499520     0.005394
PD1876   PD        0.462920    0.088572    0.501722     0.005394
AU1877   AU        0.461991    0.126597    0.465178     0.007504
PD1878   PD        0.494658    0.091001    0.465039     0.005394
PD1879   PD        0.498784    0.125127    0.497299     0.005394
PD1880   PD        0.532126    0.093035    0.497026     0.005394
PD1881   PD        0.531076    0.125796    0.463212     0.005394
PD1882   PD        0.563812    0.090460    0.465353     0.005394
PD1883   PD        0.566971    0.125993    0.496722     0.005394
PD1884   PD        0.596250    0.090570    0.496161     0.005394
AU1885   AU        0.600802    0.127770    0.464605     0.007504
PD1886   PD        0.629451    0.091243    0.462355     0.005394
PD1887   PD        0.631413    0.128205    0.496989     0.005394
PD1888   PD        0.663499    0.091909    0.494948     0.005394
PD1889   PD        0.665565    0.129603    0.465360     0.005394
PD1890   PD        0.698669    0.127753    0.499464     0.005394
PD1891   PD        0.097784    0.197244    0.499560     0.005394
PD1892   PD        0.131870    0.160541    0.499701     0.005394
PD1893   PD        0.129340    0.196891    0.463784     0.005394
PD1894   PD        0.162956    0.163252    0.467476     0.005394
PD1895   PD        0.163810    0.198435    0.499776     0.005394
PD1896   PD        0.193185    0.160202    0.502080     0.005394
PD1897   PD        0.195810    0.196304    0.467934     0.005394
AU1898   AU        0.228616    0.158188    0.467025     0.007504
PD1899   PD        0.228733    0.195187    0.499891     0.005394
AU1900   AU        0.260881    0.158708    0.500090     0.007504
PD1901   PD        0.259361    0.193325    0.467824     0.005394
AU1902   AU        0.296494    0.158994    0.467193     0.007504
PD1903   PD        0.296729    0.196428    0.497730     0.005394
AU1904   AU        0.329253    0.158463    0.498182     0.007504
AU1905   AU        0.329292    0.194868    0.464541     0.007504
AU1906   AU        0.362133    0.160474    0.463794     0.007504
AU1907   AU        0.359802    0.195611    0.500034     0.007504
PD1908   PD        0.395126    0.159327    0.499416     0.005394
AU1909   AU        0.394100    0.196070    0.466035     0.007504
AU1910   AU        0.427977    0.159978    0.464794     0.007504
PD1911   PD        0.425972    0.196329    0.499822     0.005394
AU1912   AU        0.462526    0.162731    0.498816     0.007504
AU1913   AU        0.462428    0.195973    0.466391     0.007504
AU1914   AU        0.498204    0.159724    0.464377     0.007504
AU1915   AU        0.496508    0.196032    0.496686     0.007504
AU1916   AU        0.531253    0.162008    0.498402     0.007504
AU1917   AU        0.532053    0.196930    0.466028     0.007504
AU1918   AU        0.565144    0.160950    0.464023     0.007504
AU1919   AU        0.565245    0.194464    0.497826     0.007504
AU1920   AU        0.598886    0.160797    0.498179     0.007504
AU1921   AU        0.598018    0.197592    0.465230     0.007504
AU1922   AU        0.630941    0.164119    0.465406     0.007504
PD1923   PD        0.629180    0.197073    0.501017     0.005394
PD1924   PD        0.665083    0.164371    0.497444     0.005394
AU1925   AU        0.663264    0.198385    0.463621     0.007504
PD1926   PD        0.697334    0.162714    0.462940     0.005394
PD1927   PD        0.696464    0.196640    0.496941     0.005394
PD1928   PD        0.725996    0.161265    0.497305     0.005394
PD1929   PD        0.732512    0.195349    0.465716     0.005394
PD1930   PD        0.762601    0.195029    0.499151     0.005394
PD1931   PD        0.063181    0.264747    0.466424     0.005394
AU1932   AU        0.097118    0.234942    0.466430     0.007504
PD1933   PD        0.098331    0.269291    0.499129     0.005394
AU1934   AU        0.129337    0.232835    0.499375     0.007504
AU1935   AU        0.129664    0.268064    0.466435     0.007504
PD1936   PD        0.161744    0.232258    0.466244     0.005394
AU1937   AU        0.163921    0.268541    0.498652     0.007504
AU1938   AU        0.195765    0.231488    0.498396     0.007504
AU1939   AU        0.193622    0.266898    0.465754     0.007504
PD1940   PD        0.225252    0.232017    0.465157     0.005394
AU1941   AU        0.227139    0.269506    0.501011     0.007504
AU1942   AU        0.258968    0.232668    0.498498     0.007504
AU1943   AU        0.260188    0.267838    0.468510     0.007504
AU1944   AU        0.293471    0.230838    0.466793     0.007504
AU1945   AU        0.294821    0.268276    0.497960     0.007504
AU1946   AU        0.329999    0.231581    0.496215     0.007504
AU1947   AU        0.328511    0.267438    0.463952     0.007504
AU1948   AU        0.361832    0.232520    0.464816     0.007504
AU1949   AU        0.362302    0.267960    0.499784     0.007504
AU1950   AU        0.393911    0.231251    0.500003     0.007504
AU1951   AU        0.396807    0.268449    0.465072     0.007504
AU1952   AU        0.429787    0.230345    0.467160     0.007504
AU1953   AU        0.430410    0.265388    0.497745     0.007504
AU1954   AU        0.463712    0.231975    0.498537     0.007504
AU1955   AU        0.464273    0.266207    0.463661     0.007504
AU1956   AU        0.496597    0.231103    0.464235     0.007504
AU1957   AU        0.496274    0.269070    0.498696     0.007504
PD1958   PD        0.530953    0.233905    0.498838     0.005394
AU1959   AU        0.530681    0.265041    0.465380     0.007504
AU1960   AU        0.565860    0.232019    0.465616     0.007504
AU1961   AU        0.563173    0.267327    0.499827     0.007504
AU1962   AU        0.598287    0.232153    0.497361     0.007504
AU1963   AU        0.597414    0.269212    0.466138     0.007504
AU1964   AU        0.631440    0.230666    0.466024     0.007504
AU1965   AU        0.630155    0.266618    0.499106     0.007504
AU1966   AU        0.664459    0.231980    0.497941     0.007504
AU1967   AU        0.664485    0.267243    0.464552     0.007504
PD1968   PD        0.698656    0.232704    0.464790     0.005394
AU1969   AU        0.698459    0.266000    0.498363     0.007504
PD1970   PD        0.730760    0.231824    0.497678     0.005394
AU1971   AU        0.731244    0.267467    0.465210     0.007504
PD1972   PD        0.762919    0.231252    0.462328     0.005394
PD1973   PD        0.761354    0.268526    0.497377     0.005394
PD1974   PD        0.826125    0.266144    0.425502     0.005394
PD1975   PD        0.063229    0.299341    0.499743     0.005394
PD1976   PD        0.064424    0.338006    0.468709     0.005394
PD1977   PD        0.098276    0.300090    0.466625     0.005394
AU1978   AU        0.097093    0.337796    0.499449     0.007504
AU1979   AU        0.130714    0.302025    0.500331     0.007504
AU1980   AU        0.127368    0.338145    0.465818     0.007504
PD1981   PD        0.161760    0.302517    0.463378     0.005394
AU1982   AU        0.161877    0.340228    0.498657     0.007504
AU1983   AU        0.194181    0.303682    0.498444     0.007504
AU1984   AU        0.194088    0.338041    0.465169     0.007504
AU1985   AU        0.226349    0.302148    0.465343     0.007504
AU1986   AU        0.226592    0.340546    0.499123     0.007504
AU1987   AU        0.259882    0.304798    0.499957     0.007504
AU1988   AU        0.260502    0.339352    0.465245     0.007504
AU1989   AU        0.295613    0.301235    0.464538     0.007504
AU1990   AU        0.295278    0.336948    0.499272     0.007504
AU1991   AU        0.330520    0.303885    0.499516     0.007504
AU1992   AU        0.327718    0.340175    0.465099     0.007504
AU1993   AU        0.362945    0.302936    0.465972     0.007504
AU1994   AU        0.363067    0.337075    0.499844     0.007504
AU1995   AU        0.396495    0.302346    0.498050     0.007504
AU1996   AU        0.396249    0.339622    0.462599     0.007504
AU1997   AU        0.429190    0.302848    0.464679     0.007504
AU1998   AU        0.427902    0.339859    0.498513     0.007504
AU1999   AU        0.460843    0.303375    0.498272     0.007504
AU2000   AU        0.463626    0.340110    0.465311     0.007504
AU2001   AU        0.498610    0.302788    0.465363     0.007504
AU2002   AU        0.498831    0.337469    0.499784     0.007504
AU2003   AU        0.531337    0.302284    0.497748     0.007504
AU2004   AU        0.531464    0.337523    0.464347     0.007504
AU2005   AU        0.563539    0.301818    0.464935     0.007504
AU2006   AU        0.565078    0.341021    0.497215     0.007504
AU2007   AU        0.596291    0.305119    0.499294     0.007504
AU2008   AU        0.598617    0.339051    0.464067     0.007504
AU2009   AU        0.633219    0.304182    0.466151     0.007504
AU2010   AU        0.630954    0.338389    0.499757     0.007504
AU2011   AU        0.664027    0.303364    0.497848     0.007504
PD2012   PD        0.663155    0.340966    0.467516     0.005394
AU2013   AU        0.698563    0.302745    0.466693     0.007504
AU2014   AU        0.698935    0.340414    0.499951     0.007504
PD2015   PD        0.731014    0.304549    0.499568     0.005394
PD2016   PD        0.731184    0.339036    0.463098     0.005394
PD2017   PD        0.762929    0.300760    0.464726     0.005394
PD2018   PD        0.761036    0.339941    0.500389     0.005394
PD2019   PD        0.795325    0.305478    0.498495     0.005394
PD2020   PD        0.797285    0.339342    0.466117     0.005394
PD2021   PD        0.030098    0.372182    0.466879     0.005394
PD2022   PD        0.000667    0.406634    0.535273     0.005394
PD2023   PD        0.066182    0.376154    0.497704     0.005394
PD2024   PD        0.064849    0.411105    0.465007     0.005394
AU2025   AU        0.096378    0.373389    0.465319     0.007504
PD2026   PD        0.098107    0.410205    0.498405     0.005394
AU2027   AU        0.129006    0.375887    0.498301     0.007504
AU2028   AU        0.130385    0.410294    0.466973     0.007504
AU2029   AU        0.161867    0.373022    0.466472     0.007504
AU2030   AU        0.163426    0.409273    0.498373     0.007504
AU2031   AU        0.193549    0.375197    0.497485     0.007504
AU2032   AU        0.194433    0.409260    0.464889     0.007504
AU2033   AU        0.226962    0.374435    0.465298     0.007504
AU2034   AU        0.228523    0.411513    0.498111     0.007504
AU2035   AU        0.262580    0.374906    0.499289     0.007504
AU2036   AU        0.261065    0.408926    0.464323     0.007504
AU2037   AU        0.294704    0.374540    0.465360     0.007504
AU2038   AU        0.294577    0.412295    0.497080     0.007504
AU2039   AU        0.328944    0.375058    0.499040     0.007504
AU2040   AU        0.328341    0.411534    0.464598     0.007504
AU2041   AU        0.360028    0.375411    0.467212     0.007504
AU2042   AU        0.360352    0.411446    0.499042     0.007504
AU2043   AU        0.394932    0.376251    0.497828     0.007504
AU2044   AU        0.395505    0.410397    0.465919     0.007504
AU2045   AU        0.428678    0.374620    0.464902     0.007504
AU2046   AU        0.430980    0.411619    0.500414     0.007504
AU2047   AU        0.462400    0.373130    0.498825     0.007504
AU2048   AU        0.462535    0.409190    0.466840     0.007504
AU2049   AU        0.496241    0.375066    0.466985     0.007504
AU2050   AU        0.496768    0.411064    0.498761     0.007504
AU2051   AU        0.530856    0.374403    0.495724     0.007504
AU2052   AU        0.530960    0.411721    0.463982     0.007504
AU2053   AU        0.566926    0.375576    0.464013     0.007504
AU2054   AU        0.563061    0.411967    0.499125     0.007504
AU2055   AU        0.597876    0.373263    0.499925     0.007504
AU2056   AU        0.599017    0.410779    0.466292     0.007504
AU2057   AU        0.631291    0.375112    0.466520     0.007504
AU2058   AU        0.634445    0.409591    0.498685     0.007504
AU2059   AU        0.666874    0.375276    0.501175     0.007504
AU2060   AU        0.667140    0.410393    0.465849     0.007504
AU2061   AU        0.698065    0.374986    0.467170     0.007504
AU2062   AU        0.697949    0.412542    0.498617     0.007504
PD2063   PD        0.731832    0.375725    0.495282     0.005394
AU2064   AU        0.730202    0.412820    0.465233     0.007504
PD2065   PD        0.762129    0.376169    0.464149     0.005394
PD2066   PD        0.762323    0.410340    0.498518     0.005394
PD2067   PD        0.794270    0.373452    0.499927     0.005394
PD2068   PD        0.795110    0.414243    0.464944     0.005394
PD2069   PD        0.839626    0.304672    0.449938     0.005394
PD2070   PD        0.871550    0.396991    0.519167     0.005394
PD2071   PD        0.032778    0.446732    0.466584     0.005394
PD2072   PD        0.033560    0.481716    0.499713     0.005394
AU2073   AU        0.064792    0.445764    0.498804     0.007504
AU2074   AU        0.064834    0.480672    0.465346     0.007504
PD2075   PD        0.098160    0.445705    0.465104     0.005394
PD2076   PD        0.096585    0.482092    0.496267     0.005394
AU2077   AU        0.129377    0.445945    0.497017     0.007504
AU2078   AU        0.128891    0.482172    0.465187     0.007504
AU2079   AU        0.162274    0.446295    0.464457     0.007504
PD2080   PD        0.159789    0.480446    0.498397     0.005394
AU2081   AU        0.194678    0.445679    0.498204     0.007504
AU2082   AU        0.193227    0.483907    0.464587     0.007504
AU2083   AU        0.225998    0.446318    0.466493     0.007504
AU2084   AU        0.227259    0.484312    0.497250     0.007504
AU2085   AU        0.259556    0.448771    0.498089     0.007504
AU2086   AU        0.260795    0.482685    0.463821     0.007504
AU2087   AU        0.293334    0.446495    0.464559     0.007504
AU2088   AU        0.292963    0.483718    0.497155     0.007504
AU2089   AU        0.327819    0.446466    0.497184     0.007504
AU2090   AU        0.329811    0.484415    0.465348     0.007504
AU2091   AU        0.361716    0.449104    0.466435     0.007504
AU2092   AU        0.362876    0.484265    0.496468     0.007504
AU2093   AU        0.395930    0.444390    0.497816     0.007504
AU2094   AU        0.398323    0.484461    0.464811     0.007504
AU2095   AU        0.430799    0.448580    0.465314     0.007504
AU2096   AU        0.429538    0.483652    0.499258     0.007504
AU2097   AU        0.464579    0.447279    0.497928     0.007504
AU2098   AU        0.464961    0.482121    0.465607     0.007504
AU2099   AU        0.497530    0.447088    0.465043     0.007504
AU2100   AU        0.497516    0.483336    0.497684     0.007504
AU2101   AU        0.531129    0.448648    0.495417     0.007504
AU2102   AU        0.531426    0.485119    0.465494     0.007504
AU2103   AU        0.564853    0.448504    0.464154     0.007504
AU2104   AU        0.564635    0.484213    0.499037     0.007504
AU2105   AU        0.596727    0.447441    0.498242     0.007504
AU2106   AU        0.598795    0.484507    0.465709     0.007504
AU2107   AU        0.631493    0.447154    0.467140     0.007504
AU2108   AU        0.632622    0.483015    0.499420     0.007504
AU2109   AU        0.664567    0.448255    0.499438     0.007504
AU2110   AU        0.664627    0.483533    0.465380     0.007504
AU2111   AU        0.697051    0.448744    0.464894     0.007504
AU2112   AU        0.696912    0.483580    0.500548     0.007504
AU2113   AU        0.730649    0.448410    0.498313     0.007504
AU2114   AU        0.729953    0.483616    0.465067     0.007504
AU2115   AU        0.762666    0.451059    0.464947     0.007504
AU2116   AU        0.762565    0.483870    0.498381     0.007504
AU2117   AU        0.794427    0.447641    0.498378     0.007504
PD2118   PD        0.794336    0.484025    0.466261     0.005394
PD2119   PD        0.829141    0.451535    0.463421     0.005394
PD2120   PD        0.831389    0.481016    0.494851     0.005394
PD2121   PD        0.032056    0.516167    0.464884     0.005394
PD2122   PD        0.064531    0.515046    0.497287     0.005394
AU2123   AU        0.063475    0.553051    0.465801     0.007504
AU2124   AU        0.093954    0.517885    0.467534     0.007504
AU2125   AU        0.095832    0.554294    0.498556     0.007504
AU2126   AU        0.127682    0.517048    0.497571     0.007504
AU2127   AU        0.127289    0.554117    0.463745     0.007504
AU2128   AU        0.159223    0.520899    0.464997     0.007504
AU2129   AU        0.161532    0.553231    0.497065     0.007504
AU2130   AU        0.193609    0.516918    0.498370     0.007504
AU2131   AU        0.193444    0.553816    0.463457     0.007504
AU2132   AU        0.227428    0.518629    0.464089     0.007504
PD2133   PD        0.227584    0.557243    0.499016     0.005394
AU2134   AU        0.260368    0.518491    0.498077     0.007504
AU2135   AU        0.262095    0.556131    0.464396     0.007504
AU2136   AU        0.294972    0.517825    0.465129     0.007504
AU2137   AU        0.292788    0.554247    0.497853     0.007504
AU2138   AU        0.328142    0.519365    0.502312     0.007504
AU2139   AU        0.328284    0.553370    0.464486     0.007504
AU2140   AU        0.365065    0.519755    0.464193     0.007504
AU2141   AU        0.361481    0.555580    0.498683     0.007504
AU2142   AU        0.396054    0.519965    0.498108     0.007504
AU2143   AU        0.394736    0.558382    0.464745     0.007504
AU2144   AU        0.429182    0.521626    0.463485     0.007504
AU2145   AU        0.430775    0.555028    0.498594     0.007504
AU2146   AU        0.463850    0.519054    0.498768     0.007504
AU2147   AU        0.461931    0.555127    0.464182     0.007504
AU2148   AU        0.498459    0.520891    0.465159     0.007504
AU2149   AU        0.497291    0.556558    0.498918     0.007504
AU2150   AU        0.531316    0.517713    0.498478     0.007504
AU2151   AU        0.531235    0.556100    0.465944     0.007504
AU2152   AU        0.564235    0.520887    0.464616     0.007504
AU2153   AU        0.565987    0.555221    0.499364     0.007504
AU2154   AU        0.599034    0.518720    0.497605     0.007504
AU2155   AU        0.599659    0.555809    0.465400     0.007504
AU2156   AU        0.633097    0.519552    0.467009     0.007504
AU2157   AU        0.632456    0.555031    0.499507     0.007504
AU2158   AU        0.666700    0.519785    0.499257     0.007504
AU2159   AU        0.665591    0.555480    0.464922     0.007504
AU2160   AU        0.697749    0.520587    0.463671     0.007504
AU2161   AU        0.698365    0.556838    0.499144     0.007504
PD2162   PD        0.729292    0.519729    0.498816     0.005394
AU2163   AU        0.730875    0.553471    0.465835     0.007504
AU2164   AU        0.763421    0.516984    0.465942     0.007504
AU2165   AU        0.762947    0.553285    0.500095     0.007504
PD2166   PD        0.796744    0.517241    0.498787     0.005394
PD2167   PD        0.794888    0.553861    0.465070     0.005394
PD2168   PD        0.826575    0.517028    0.465157     0.005394
AU2169   AU        0.062710    0.591523    0.496627     0.007504
PD2170   PD        0.063471    0.627793    0.465155     0.005394
AU2171   AU        0.096353    0.590010    0.466548     0.007504
AU2172   AU        0.093481    0.626174    0.498191     0.007504
PD2173   PD        0.126946    0.591408    0.498649     0.005394
AU2174   AU        0.126195    0.624726    0.465916     0.007504
AU2175   AU        0.159761    0.590968    0.466244     0.007504
AU2176   AU        0.160022    0.624951    0.498616     0.007504
AU2177   AU        0.193867    0.589263    0.496867     0.007504
PD2178   PD        0.193839    0.626357    0.465309     0.005394
AU2179   AU        0.225899    0.588705    0.464274     0.007504
AU2180   AU        0.227128    0.625032    0.498048     0.007504
AU2181   AU        0.261796    0.590423    0.498766     0.007504
AU2182   AU        0.260550    0.624738    0.464828     0.007504
AU2183   AU        0.294334    0.588887    0.462584     0.007504
AU2184   AU        0.295365    0.625107    0.497556     0.007504
AU2185   AU        0.328527    0.592225    0.498644     0.007504
AU2186   AU        0.328211    0.626375    0.463280     0.007504
AU2187   AU        0.360898    0.592288    0.464516     0.007504
AU2188   AU        0.362390    0.627959    0.499091     0.007504
AU2189   AU        0.395011    0.592398    0.497595     0.007504
AU2190   AU        0.396495    0.625903    0.464035     0.007504
AU2191   AU        0.428309    0.592189    0.463152     0.007504
AU2192   AU        0.429816    0.627394    0.496588     0.007504
AU2193   AU        0.465947    0.593106    0.497524     0.007504
AU2194   AU        0.464989    0.628472    0.462525     0.007504
AU2195   AU        0.497975    0.592091    0.465429     0.007504
AU2196   AU        0.499065    0.629399    0.500095     0.007504
AU2197   AU        0.530852    0.591976    0.499719     0.007504
AU2198   AU        0.530309    0.627988    0.466842     0.007504
PD2199   PD        0.562960    0.592981    0.468790     0.005394
AU2200   AU        0.563702    0.629354    0.497708     0.007504
AU2201   AU        0.598494    0.592284    0.499622     0.007504
AU2202   AU        0.599433    0.629002    0.466320     0.007504
AU2203   AU        0.632357    0.591121    0.463267     0.007504
AU2204   AU        0.632655    0.627386    0.497744     0.007504
AU2205   AU        0.666606    0.590102    0.500251     0.007504
AU2206   AU        0.667128    0.625027    0.462980     0.007504
AU2207   AU        0.699276    0.589636    0.464501     0.007504
AU2208   AU        0.697327    0.625031    0.497621     0.007504
AU2209   AU        0.730704    0.590531    0.500290     0.007504
AU2210   AU        0.728981    0.625340    0.466161     0.007504
PD2211   PD        0.765081    0.589820    0.466422     0.005394
PD2212   PD        0.762527    0.624187    0.500870     0.005394
PD2213   PD        0.792603    0.590238    0.501102     0.005394
PD2214   PD        0.796796    0.661501    0.500904     0.005394
AU2215   AU        0.095775    0.660538    0.465513     0.007504
PD2216   PD        0.094053    0.699507    0.499728     0.005394
AU2217   AU        0.128282    0.659553    0.497091     0.007504
PD2218   PD        0.125927    0.696884    0.466571     0.005394
PD2219   PD        0.160690    0.660899    0.465802     0.005394
PD2220   PD        0.162664    0.694650    0.497679     0.005394
AU2221   AU        0.194072    0.660296    0.498599     0.007504
AU2222   AU        0.195914    0.695871    0.465944     0.007504
AU2223   AU        0.228251    0.661728    0.466628     0.007504
AU2224   AU        0.228766    0.696099    0.498689     0.007504
AU2225   AU        0.262254    0.661463    0.499822     0.007504
AU2226   AU        0.261197    0.696166    0.465435     0.007504
AU2227   AU        0.294230    0.659945    0.467847     0.007504
AU2228   AU        0.294262    0.696047    0.499080     0.007504
AU2229   AU        0.326715    0.660782    0.501134     0.007504
PD2230   PD        0.328426    0.697625    0.467861     0.005394
AU2231   AU        0.362737    0.663312    0.466396     0.007504
AU2232   AU        0.362458    0.695859    0.500964     0.007504
AU2233   AU        0.397178    0.663944    0.500701     0.007504
AU2234   AU        0.396016    0.695781    0.466273     0.007504
AU2235   AU        0.431687    0.662672    0.462093     0.007504
AU2236   AU        0.431251    0.696089    0.498603     0.007504
AU2237   AU        0.463941    0.662083    0.498660     0.007504
AU2238   AU        0.464427    0.697817    0.462975     0.007504
AU2239   AU        0.500299    0.662033    0.466312     0.007504
AU2240   AU        0.498729    0.696894    0.499366     0.007504
AU2241   AU        0.531986    0.664280    0.498768     0.007504
AU2242   AU        0.531934    0.698393    0.464630     0.007504
AU2243   AU        0.564407    0.662519    0.465089     0.007504
AU2244   AU        0.565623    0.698895    0.499545     0.007504
AU2245   AU        0.597579    0.663211    0.499812     0.007504
AU2246   AU        0.597011    0.697959    0.463695     0.007504
AU2247   AU        0.631929    0.663164    0.467151     0.007504
AU2248   AU        0.629685    0.698264    0.498400     0.007504
AU2249   AU        0.666375    0.661430    0.498175     0.007504
AU2250   AU        0.664534    0.698351    0.463442     0.007504
PD2251   PD        0.697652    0.660216    0.464090     0.005394
PD2252   PD        0.697942    0.695707    0.498155     0.005394
PD2253   PD        0.729960    0.660369    0.497786     0.005394
PD2254   PD        0.733254    0.697899    0.468651     0.005394
PD2255   PD        0.760402    0.660082    0.464499     0.005394
PD2256   PD        0.766188    0.702474    0.500279     0.005394
PD2257   PD        0.129510    0.729261    0.498078     0.005394
PD2258   PD        0.159434    0.729935    0.465103     0.005394
PD2259   PD        0.146205    0.767303    0.499805     0.005394
PD2260   PD        0.197254    0.730741    0.498005     0.005394
PD2261   PD        0.196544    0.765112    0.464092     0.005394
AU2262   AU        0.229076    0.731784    0.462978     0.007504
PD2263   PD        0.226798    0.764595    0.497753     0.005394
PD2264   PD        0.261581    0.730738    0.497229     0.005394
PD2265   PD        0.259934    0.767384    0.466824     0.005394
PD2266   PD        0.296310    0.730585    0.465936     0.005394
PD2267   PD        0.293128    0.768004    0.498197     0.005394
PD2268   PD        0.330207    0.732055    0.499177     0.005394
AU2269   AU        0.329312    0.766255    0.468278     0.007504
AU2270   AU        0.362203    0.730309    0.465146     0.007504
AU2271   AU        0.364257    0.767251    0.497000     0.007504
AU2272   AU        0.396977    0.730453    0.498493     0.007504
AU2273   AU        0.395982    0.764941    0.464022     0.007504
AU2274   AU        0.429819    0.730886    0.465893     0.007504
AU2275   AU        0.429799    0.768337    0.496180     0.007504
AU2276   AU        0.463278    0.732603    0.497207     0.007504
AU2277   AU        0.463910    0.769791    0.466214     0.007504
PD2278   PD        0.498699    0.733447    0.466429     0.005394
PD2279   PD        0.494989    0.769317    0.499657     0.005394
AU2280   AU        0.532131    0.733037    0.499015     0.007504
PD2281   PD        0.533603    0.770170    0.464204     0.005394
AU2282   AU        0.565507    0.734496    0.463340     0.007504
PD2283   PD        0.564640    0.766777    0.499129     0.005394
AU2284   AU        0.598183    0.735155    0.498445     0.007504
AU2285   AU        0.597517    0.769635    0.463918     0.007504
PD2286   PD        0.630759    0.732942    0.465646     0.005394
AU2287   AU        0.632058    0.768327    0.499188     0.007504
AU2288   AU        0.662521    0.731570    0.498712     0.007504
AU2289   AU        0.663820    0.767112    0.466124     0.007504
PD2290   PD        0.695188    0.733821    0.465359     0.005394
PD2291   PD        0.696728    0.771293    0.497035     0.005394
PD2292   PD        0.729774    0.728526    0.495705     0.005394
PD2293   PD        0.195803    0.803206    0.497886     0.005394
PD2294   PD        0.225403    0.803183    0.469336     0.005394
PD2295   PD        0.262573    0.804273    0.501343     0.005394
PD2296   PD        0.250579    0.836519    0.467776     0.005394
PD2297   PD        0.295864    0.801047    0.464358     0.005394
PD2298   PD        0.294920    0.837935    0.499677     0.005394
PD2299   PD        0.331645    0.801583    0.499340     0.005394
PD2300   PD        0.332690    0.835111    0.462925     0.005394
PD2301   PD        0.367216    0.802089    0.463951     0.005394
PD2302   PD        0.363008    0.833163    0.499694     0.005394
AU2303   AU        0.398405    0.801314    0.496648     0.007504
PD2304   PD        0.398791    0.836868    0.465787     0.005394
AU2305   AU        0.429884    0.802222    0.463125     0.007504
PD2306   PD        0.432739    0.834442    0.498729     0.005394
PD2307   PD        0.461389    0.803365    0.495652     0.005394
AU2308   AU        0.462230    0.836323    0.462810     0.007504
PD2309   PD        0.494506    0.802948    0.464433     0.005394
PD2310   PD        0.498456    0.835025    0.496995     0.005394
PD2311   PD        0.532791    0.803490    0.497351     0.005394
PD2312   PD        0.529784    0.836460    0.462237     0.005394
PD2313   PD        0.565627    0.803038    0.460809     0.005394
PD2314   PD        0.566062    0.837887    0.493868     0.005394
PD2315   PD        0.596379    0.801808    0.498123     0.005394
PD2316   PD        0.645330    0.864024    0.465173     0.005394
PD2317   PD        0.632528    0.802607    0.465356     0.005394
PD2318   PD        0.664222    0.805524    0.495440     0.005394
PD2319   PD        0.362596    0.869722    0.465266     0.005394
PD2320   PD        0.424821    0.905734    0.496277     0.005394
PD2321   PD        0.430021    0.872687    0.462489     0.005394
PD2322   PD        0.463513    0.870883    0.496744     0.005394
PD2323   PD        0.498700    0.871966    0.461993     0.005394
AU2324   AU        0.265856    0.055457    0.534513     0.007504
PD2325   PD        0.296481    0.056222    0.569822     0.005394
PD2326   PD        0.327383    0.054881    0.533921     0.005394
AU2327   AU        0.359000    0.057081    0.569856     0.007504
PD2328   PD        0.391848    0.053751    0.535937     0.005394
PD2329   PD        0.432465    0.022022    0.528912     0.005394
PD2330   PD        0.431621    0.053198    0.565283     0.005394
PD2331   PD        0.465266    0.055048    0.532510     0.005394
PD2332   PD        0.495013    0.052169    0.566621     0.005394
PD2333   PD        0.530637    0.055792    0.531683     0.005394
PD2334   PD        0.560591    0.050426    0.563447     0.005394
PD2335   PD        0.596923    0.055681    0.528198     0.005394
PD2336   PD        0.196491    0.123162    0.535392     0.005394
PD2337   PD        0.232303    0.090663    0.533643     0.005394
AU2338   AU        0.229194    0.125208    0.565642     0.007504
AU2339   AU        0.262659    0.089314    0.566096     0.007504
AU2340   AU        0.262652    0.124854    0.533481     0.007504
AU2341   AU        0.295884    0.092456    0.533593     0.007504
AU2342   AU        0.294595    0.124703    0.567023     0.007504
AU2343   AU        0.327566    0.089855    0.567313     0.007504
AU2344   AU        0.328301    0.124574    0.531932     0.007504
PD2345   PD        0.359284    0.089007    0.534793     0.005394
PD2346   PD        0.360805    0.125858    0.565975     0.005394
PD2347   PD        0.393700    0.090299    0.565415     0.005394
PD2348   PD        0.392783    0.124321    0.534159     0.005394
PD2349   PD        0.427768    0.087205    0.533510     0.005394
PD2350   PD        0.429778    0.127761    0.565374     0.005394
PD2351   PD        0.465989    0.093435    0.563138     0.005394
PD2352   PD        0.464556    0.125200    0.529905     0.005394
AU2353   AU        0.496929    0.091737    0.530782     0.007504
AU2354   AU        0.498832    0.124195    0.567357     0.007504
AU2355   AU        0.530367    0.088764    0.564294     0.007504
AU2356   AU        0.531116    0.125565    0.530401     0.007504
AU2357   AU        0.563057    0.091725    0.533456     0.007504
PD2358   PD        0.561166    0.127740    0.565001     0.005394
PD2359   PD        0.594871    0.088299    0.567693     0.005394
PD2360   PD        0.596675    0.126697    0.531845     0.005394
PD2361   PD        0.631687    0.051786    0.562304     0.005394
PD2362   PD        0.631947    0.121187    0.564008     0.005394
PD2363   PD        0.662479    0.125587    0.528538     0.005394
PD2364   PD        0.129281    0.199405    0.530333     0.005394
PD2365   PD        0.162908    0.161061    0.532734     0.005394
PD2366   PD        0.162334    0.196271    0.565989     0.005394
PD2367   PD        0.194647    0.160136    0.565295     0.005394
PD2368   PD        0.194120    0.196395    0.532755     0.005394
PD2369   PD        0.231191    0.162008    0.535893     0.005394
PD2370   PD        0.229873    0.195372    0.563320     0.005394
AU2371   AU        0.263903    0.158583    0.566471     0.007504
AU2372   AU        0.262739    0.194571    0.533704     0.007504
AU2373   AU        0.294672    0.159035    0.534389     0.007504
PD2374   PD        0.295797    0.194075    0.567557     0.005394
AU2375   AU        0.327809    0.158206    0.568470     0.007504
AU2376   AU        0.328630    0.195095    0.532336     0.007504
PD2377   PD        0.361999    0.158525    0.533847     0.005394
AU2378   AU        0.360747    0.194578    0.567258     0.007504
PD2379   PD        0.396185    0.162374    0.565996     0.005394
AU2380   AU        0.395449    0.196991    0.533650     0.007504
PD2381   PD        0.429487    0.162115    0.533167     0.005394
AU2382   AU        0.430953    0.197323    0.565775     0.007504
PD2383   PD        0.464710    0.158685    0.568923     0.005394
PD2384   PD        0.462748    0.198060    0.530343     0.005394
PD2385   PD        0.496339    0.160937    0.531020     0.005394
AU2386   AU        0.496871    0.198045    0.564297     0.007504
AU2387   AU        0.530248    0.161226    0.565723     0.007504
AU2388   AU        0.528464    0.198344    0.531961     0.007504
AU2389   AU        0.563807    0.163533    0.532715     0.007504
AU2390   AU        0.564179    0.195678    0.565957     0.007504
PD2391   PD        0.594363    0.161209    0.564311     0.005394
AU2392   AU        0.597745    0.196563    0.532732     0.007504
PD2393   PD        0.630836    0.160199    0.530551     0.005394
AU2394   AU        0.630856    0.198074    0.564526     0.007504
PD2395   PD        0.664053    0.164008    0.565221     0.005394
AU2396   AU        0.664204    0.198693    0.531904     0.007504
PD2397   PD        0.697935    0.157139    0.533429     0.005394
AU2398   AU        0.697130    0.198451    0.565955     0.007504
PD2399   PD        0.728104    0.195014    0.528242     0.005394
PD2400   PD        0.065705    0.268526    0.531787     0.005394
PD2401   PD        0.098382    0.234742    0.532032     0.005394
PD2402   PD        0.097128    0.267041    0.566288     0.005394
PD2403   PD        0.129281    0.232119    0.564462     0.005394
PD2404   PD        0.129853    0.268601    0.531663     0.005394
AU2405   AU        0.163231    0.233444    0.535640     0.007504
AU2406   AU        0.162670    0.268315    0.567333     0.007504
AU2407   AU        0.196483    0.233140    0.568203     0.007504
PD2408   PD        0.194754    0.265541    0.532616     0.005394
PD2409   PD        0.228982    0.233312    0.535084     0.005394
PD2410   PD        0.227223    0.270108    0.569645     0.005394
PD2411   PD        0.261917    0.231866    0.567423     0.005394
AU2412   AU        0.261697    0.269630    0.532562     0.007504
PD2413   PD        0.294535    0.230841    0.531349     0.005394
AU2414   AU        0.294578    0.267885    0.568697     0.007504
AU2415   AU        0.329465    0.230399    0.565172     0.007504
AU2416   AU        0.329187    0.268231    0.532061     0.007504
AU2417   AU        0.361040    0.232634    0.533243     0.007504
AU2418   AU        0.361813    0.267110    0.565680     0.007504
AU2419   AU        0.392764    0.230753    0.566814     0.007504
AU2420   AU        0.396325    0.266611    0.532384     0.007504
AU2421   AU        0.429837    0.232120    0.533129     0.007504
AU2422   AU        0.429211    0.266051    0.566788     0.007504
AU2423   AU        0.463176    0.233270    0.565683     0.007504
AU2424   AU        0.463013    0.268271    0.531544     0.007504
AU2425   AU        0.497865    0.233461    0.530035     0.007504
AU2426   AU        0.497549    0.268183    0.564813     0.007504
AU2427   AU        0.529749    0.231554    0.566760     0.007504
AU2428   AU        0.530933    0.266568    0.533746     0.007504
AU2429   AU        0.563946    0.230773    0.532439     0.007504
AU2430   AU        0.564415    0.267165    0.563211     0.007504
AU2431   AU        0.598257    0.231054    0.564101     0.007504
AU2432   AU        0.596410    0.267104    0.530670     0.007504
AU2433   AU        0.631839    0.232066    0.533169     0.007504
AU2434   AU        0.632261    0.266457    0.565326     0.007504
AU2435   AU        0.663892    0.233701    0.564250     0.007504
PD2436   PD        0.664649    0.268057    0.530487     0.005394
PD2437   PD        0.699049    0.230279    0.531149     0.005394
PD2438   PD        0.697594    0.269604    0.564290     0.005394
PD2439   PD        0.730668    0.233458    0.563640     0.005394
AU2440   AU        0.729717    0.267786    0.531326     0.007504
PD2441   PD        0.764158    0.233159    0.530745     0.005394
PD2442   PD        0.761751    0.267440    0.567017     0.005394
PD2443   PD        0.797010    0.267277    0.531669     0.005394
PD2444   PD        0.066398    0.303588    0.565758     0.005394
PD2445   PD        0.066096    0.337787    0.533261     0.005394
AU2446   AU        0.099087    0.302977    0.533044     0.007504
PD2447   PD        0.096781    0.338808    0.566346     0.005394
AU2448   AU        0.130412    0.304503    0.565991     0.007504
AU2449   AU        0.130289    0.338638    0.532132     0.007504
AU2450   AU        0.162154    0.302596    0.532577     0.007504
AU2451   AU        0.162083    0.338855    0.563840     0.007504
PD2452   PD        0.193359    0.303030    0.567842     0.005394
AU2453   AU        0.194598    0.336639    0.532778     0.007504
AU2454   AU        0.228816    0.303532    0.534183     0.007504
AU2455   AU        0.229507    0.339787    0.566921     0.007504
AU2456   AU        0.262444    0.302147    0.567424     0.007504
AU2457   AU        0.260355    0.338625    0.532601     0.007504
AU2458   AU        0.295940    0.303837    0.531594     0.007504
AU2459   AU        0.295942    0.337335    0.566475     0.007504
AU2460   AU        0.330011    0.302293    0.565854     0.007504
AU2461   AU        0.329902    0.339075    0.533183     0.007504
AU2462   AU        0.361456    0.303049    0.533675     0.007504
AU2463   AU        0.361902    0.338053    0.567812     0.007504
AU2464   AU        0.396659    0.300945    0.566344     0.007504
AU2465   AU        0.393005    0.337368    0.533337     0.007504
AU2466   AU        0.429246    0.302683    0.533735     0.007504
AU2467   AU        0.428824    0.336885    0.565931     0.007504
AU2468   AU        0.463472    0.301765    0.566038     0.007504
AU2469   AU        0.464116    0.337017    0.532790     0.007504
AU2470   AU        0.497334    0.301711    0.532610     0.007504
AU2471   AU        0.495891    0.336811    0.565778     0.007504
AU2472   AU        0.531256    0.304374    0.566259     0.007504
AU2473   AU        0.528716    0.338919    0.533730     0.007504
AU2474   AU        0.563899    0.305784    0.532302     0.007504
AU2475   AU        0.564416    0.340314    0.566994     0.007504
AU2476   AU        0.599511    0.303683    0.563267     0.007504
AU2477   AU        0.598139    0.338045    0.532739     0.007504
AU2478   AU        0.632317    0.303300    0.533144     0.007504
AU2479   AU        0.632850    0.340617    0.564351     0.007504
AU2480   AU        0.665007    0.302632    0.564725     0.007504
AU2481   AU        0.665006    0.340293    0.530847     0.007504
PD2482   PD        0.700190    0.301502    0.530883     0.005394
AU2483   AU        0.698671    0.338090    0.563507     0.007504
AU2484   AU        0.730373    0.303946    0.562956     0.007504
AU2485   AU        0.729847    0.340921    0.532664     0.007504
PD2486   PD        0.765480    0.302345    0.532477     0.005394
PD2487   PD        0.763473    0.339848    0.564763     0.005394
PD2488   PD        0.794980    0.300960    0.566193     0.005394
PD2489   PD        0.796098    0.340515    0.531723     0.005394
PD2490   PD        0.065465    0.376484    0.565618     0.005394
PD2491   PD        0.065973    0.410853    0.532010     0.005394
AU2492   AU        0.096975    0.374782    0.533956     0.007504
PD2493   PD        0.097632    0.408168    0.565543     0.005394
AU2494   AU        0.130375    0.374518    0.566082     0.007504
AU2495   AU        0.128155    0.408530    0.532670     0.007504
PD2496   PD        0.162947    0.374224    0.530185     0.005394
AU2497   AU        0.161573    0.410563    0.567153     0.007504
AU2498   AU        0.194797    0.375009    0.566573     0.007504
AU2499   AU        0.194981    0.409347    0.532504     0.007504
AU2500   AU        0.225899    0.373398    0.532213     0.007504
AU2501   AU        0.227847    0.410740    0.566566     0.007504
AU2502   AU        0.262070    0.376015    0.566861     0.007504
AU2503   AU        0.261327    0.412395    0.534104     0.007504
AU2504   AU        0.295572    0.373941    0.533928     0.007504
AU2505   AU        0.295570    0.412516    0.567285     0.007504
AU2506   AU        0.327429    0.375117    0.566347     0.007504
AU2507   AU        0.328385    0.409788    0.531720     0.007504
AU2508   AU        0.361855    0.375273    0.532475     0.007504
AU2509   AU        0.360281    0.413143    0.567092     0.007504
AU2510   AU        0.397037    0.375382    0.565339     0.007504
AU2511   AU        0.394130    0.411153    0.533558     0.007504
AU2512   AU        0.427998    0.373620    0.531947     0.007504
AU2513   AU        0.430740    0.411415    0.564426     0.007504
AU2514   AU        0.462208    0.372147    0.565988     0.007504
AU2515   AU        0.461908    0.410553    0.531798     0.007504
AU2516   AU        0.497126    0.374143    0.532837     0.007504
AU2517   AU        0.496752    0.410845    0.564417     0.007504
AU2518   AU        0.531053    0.376032    0.568905     0.007504
AU2519   AU        0.530342    0.411790    0.532846     0.007504
AU2520   AU        0.565677    0.372253    0.533951     0.007504
AU2521   AU        0.564656    0.411310    0.564695     0.007504
AU2522   AU        0.599270    0.374867    0.563708     0.007504
AU2523   AU        0.598708    0.411190    0.531567     0.007504
AU2524   AU        0.632683    0.377039    0.532077     0.007504
AU2525   AU        0.632223    0.410713    0.566757     0.007504
AU2526   AU        0.668150    0.376967    0.564909     0.007504
AU2527   AU        0.664379    0.412430    0.532904     0.007504
AU2528   AU        0.699355    0.374448    0.532598     0.007504
AU2529   AU        0.699924    0.412002    0.565253     0.007504
PD2530   PD        0.731787    0.373915    0.564156     0.005394
PD2531   PD        0.729430    0.414356    0.532383     0.005394
PD2532   PD        0.761456    0.376104    0.531998     0.005394
AU2533   AU        0.761751    0.412770    0.566524     0.007504
PD2534   PD        0.792842    0.377533    0.564579     0.005394
PD2535   PD        0.794523    0.409746    0.533774     0.005394
PD2536   PD        0.034741    0.446522    0.533478     0.005394
PD2537   PD        0.067145    0.441267    0.565153     0.005394
PD2538   PD        0.064965    0.482066    0.532413     0.005394
PD2539   PD        0.096613    0.445983    0.532236     0.005394
AU2540   AU        0.096078    0.479731    0.565647     0.007504
PD2541   PD        0.127877    0.445801    0.565840     0.005394
AU2542   AU        0.127757    0.483466    0.531531     0.007504
AU2543   AU        0.161731    0.445559    0.533592     0.007504
AU2544   AU        0.160171    0.483164    0.565137     0.007504
AU2545   AU        0.193729    0.445403    0.566389     0.007504
AU2546   AU        0.194229    0.483419    0.532397     0.007504
AU2547   AU        0.227733    0.446150    0.531488     0.007504
AU2548   AU        0.226966    0.480896    0.568186     0.007504
AU2549   AU        0.259617    0.448151    0.566614     0.007504
AU2550   AU        0.259020    0.485109    0.531811     0.007504
AU2551   AU        0.294949    0.447677    0.532129     0.007504
AU2552   AU        0.294217    0.483811    0.568248     0.007504
AU2553   AU        0.327088    0.449537    0.565851     0.007504
AU2554   AU        0.326848    0.482935    0.531443     0.007504
AU2555   AU        0.362868    0.447693    0.530795     0.007504
AU2556   AU        0.360727    0.482745    0.564732     0.007504
AU2557   AU        0.396741    0.447634    0.565135     0.007504
AU2558   AU        0.395912    0.482626    0.531830     0.007504
AU2559   AU        0.430286    0.449156    0.532902     0.007504
AU2560   AU        0.428076    0.483830    0.567119     0.007504
AU2561   AU        0.464886    0.447911    0.567314     0.007504
AU2562   AU        0.464164    0.483791    0.531988     0.007504
AU2563   AU        0.498065    0.447665    0.531338     0.007504
AU2564   AU        0.497166    0.484625    0.566199     0.007504
AU2565   AU        0.531934    0.449303    0.565208     0.007504
AU2566   AU        0.531760    0.482077    0.531064     0.007504
AU2567   AU        0.565386    0.447162    0.531375     0.007504
AU2568   AU        0.566474    0.483286    0.563675     0.007504
AU2569   AU        0.600141    0.447156    0.566706     0.007504
AU2570   AU        0.599275    0.485037    0.531382     0.007504
AU2571   AU        0.631323    0.446445    0.530993     0.007504
AU2572   AU        0.632765    0.483569    0.564461     0.007504
AU2573   AU        0.665812    0.450212    0.566185     0.007504
AU2574   AU        0.665147    0.484634    0.531130     0.007504
AU2575   AU        0.697624    0.448704    0.532590     0.007504
AU2576   AU        0.699823    0.484153    0.566699     0.007504
AU2577   AU        0.730877    0.448642    0.566541     0.007504
AU2578   AU        0.728953    0.482542    0.532795     0.007504
PD2579   PD        0.764883    0.447569    0.532325     0.005394
PD2580   PD        0.763236    0.484311    0.565312     0.005394
PD2581   PD        0.793954    0.448926    0.565938     0.005394
AU2582   AU        0.796655    0.483524    0.532556     0.007504
PD2583   PD        0.825582    0.443736    0.530088     0.005394
PD2584   PD        0.064887    0.516944    0.563250     0.005394
PD2585   PD        0.061367    0.553721    0.529451     0.005394
PD2586   PD        0.095815    0.518762    0.529394     0.005394
PD2587   PD        0.093284    0.552576    0.561866     0.005394
PD2588   PD        0.128769    0.519274    0.563900     0.005394
AU2589   AU        0.129730    0.556186    0.530825     0.007504
AU2590   AU        0.159344    0.519725    0.532790     0.007504
PD2591   PD        0.161231    0.555581    0.564418     0.005394
AU2592   AU        0.194485    0.517343    0.566128     0.007504
AU2593   AU        0.192082    0.554626    0.532450     0.007504
AU2594   AU        0.226596    0.520595    0.532035     0.007504
AU2595   AU        0.227188    0.555812    0.564163     0.007504
AU2596   AU        0.260761    0.519627    0.567812     0.007504
AU2597   AU        0.259499    0.554523    0.532509     0.007504
AU2598   AU        0.293605    0.519581    0.532375     0.007504
AU2599   AU        0.294191    0.552654    0.566359     0.007504
AU2600   AU        0.329195    0.519181    0.566043     0.007504
AU2601   AU        0.328679    0.556954    0.532501     0.007504
AU2602   AU        0.363534    0.518491    0.532711     0.007504
AU2603   AU        0.364061    0.554744    0.565876     0.007504
AU2604   AU        0.395498    0.519523    0.564593     0.007504
AU2605   AU        0.398202    0.552879    0.531823     0.007504
AU2606   AU        0.429535    0.518917    0.533624     0.007504
AU2607   AU        0.430883    0.556360    0.564618     0.007504
AU2608   AU        0.464751    0.520615    0.564151     0.007504
AU2609   AU        0.466700    0.557766    0.532561     0.007504
AU2610   AU        0.499353    0.520844    0.532364     0.007504
AU2611   AU        0.497571    0.556282    0.565930     0.007504
AU2612   AU        0.529340    0.519733    0.564767     0.007504
AU2613   AU        0.532994    0.555021    0.532064     0.007504
AU2614   AU        0.564925    0.518052    0.531782     0.007504
AU2615   AU        0.562140    0.554161    0.565770     0.007504
AU2616   AU        0.598814    0.519605    0.564755     0.007504
AU2617   AU        0.599182    0.554147    0.532346     0.007504
AU2618   AU        0.631831    0.518833    0.531331     0.007504
AU2619   AU        0.632787    0.557142    0.565743     0.007504
AU2620   AU        0.663563    0.522859    0.565687     0.007504
AU2621   AU        0.665531    0.555719    0.532843     0.007504
AU2622   AU        0.697844    0.518147    0.532568     0.007504
PD2623   PD        0.697794    0.556464    0.565283     0.005394
AU2624   AU        0.731351    0.519170    0.564473     0.007504
AU2625   AU        0.729059    0.554717    0.531999     0.007504
PD2626   PD        0.761832    0.518298    0.531839     0.005394
PD2627   PD        0.764688    0.553252    0.564859     0.005394
PD2628   PD        0.794296    0.520285    0.563687     0.005394
PD2629   PD        0.795106    0.555149    0.532282     0.005394
PD2630   PD        0.063007    0.586785    0.563728     0.005394
PD2631   PD        0.096963    0.697865    0.563343     0.005394
PD2632   PD        0.093568    0.592679    0.527826     0.005394
PD2633   PD        0.096090    0.623484    0.562241     0.005394
PD2634   PD        0.127621    0.591751    0.563112     0.005394
PD2635   PD        0.129210    0.624560    0.529538     0.005394
AU2636   AU        0.161629    0.589650    0.530968     0.007504
AU2637   AU        0.162653    0.624867    0.563447     0.007504
AU2638   AU        0.196188    0.589880    0.565731     0.007504
AU2639   AU        0.194979    0.624111    0.530204     0.007504
AU2640   AU        0.227776    0.590136    0.532972     0.007504
AU2641   AU        0.229479    0.624968    0.565408     0.007504
AU2642   AU        0.261143    0.589262    0.565106     0.007504
AU2643   AU        0.261351    0.625352    0.533456     0.007504
AU2644   AU        0.294201    0.588721    0.532940     0.007504
AU2645   AU        0.293838    0.627333    0.565894     0.007504
AU2646   AU        0.327566    0.589789    0.566068     0.007504
AU2647   AU        0.329354    0.626397    0.535164     0.007504
AU2648   AU        0.362926    0.590761    0.532808     0.007504
AU2649   AU        0.363498    0.629711    0.565386     0.007504
AU2650   AU        0.396711    0.590340    0.566244     0.007504
AU2651   AU        0.395532    0.626837    0.532252     0.007504
AU2652   AU        0.430401    0.591009    0.530754     0.007504
AU2653   AU        0.432061    0.626068    0.565147     0.007504
AU2654   AU        0.464641    0.590672    0.565588     0.007504
AU2655   AU        0.463239    0.629186    0.532890     0.007504
AU2656   AU        0.497586    0.593460    0.532042     0.007504
AU2657   AU        0.499045    0.629281    0.564046     0.007504
AU2658   AU        0.531824    0.594797    0.565515     0.007504
AU2659   AU        0.532279    0.629434    0.530458     0.007504
AU2660   AU        0.566429    0.592468    0.532965     0.007504
AU2661   AU        0.566297    0.628182    0.564963     0.007504
AU2662   AU        0.599976    0.591339    0.568327     0.007504
AU2663   AU        0.600147    0.626978    0.533259     0.007504
AU2664   AU        0.632391    0.591597    0.532901     0.007504
AU2665   AU        0.631688    0.628255    0.567279     0.007504
AU2666   AU        0.665522    0.589740    0.566607     0.007504
AU2667   AU        0.664956    0.627063    0.532284     0.007504
AU2668   AU        0.698797    0.593136    0.532137     0.007504
AU2669   AU        0.697324    0.627421    0.564627     0.007504
AU2670   AU        0.729207    0.590880    0.566751     0.007504
AU2671   AU        0.730808    0.625037    0.532846     0.007504
AU2672   AU        0.761567    0.589682    0.533034     0.007504
AU2673   AU        0.761272    0.625419    0.565207     0.007504
PD2674   PD        0.794055    0.589407    0.562992     0.005394
PD2675   PD        0.796081    0.624621    0.530311     0.005394
PD2676   PD        0.096894    0.657924    0.532581     0.005394
PD2677   PD        0.132481    0.660266    0.566066     0.005394
PD2678   PD        0.128651    0.693548    0.528586     0.005394
PD2679   PD        0.161889    0.657984    0.530990     0.005394
PD2680   PD        0.163839    0.693929    0.566458     0.005394
PD2681   PD        0.196789    0.657673    0.563946     0.005394
PD2682   PD        0.194675    0.695793    0.531937     0.005394
PD2683   PD        0.227470    0.660167    0.531758     0.005394
PD2684   PD        0.225832    0.698165    0.566835     0.005394
PD2685   PD        0.262248    0.663427    0.566525     0.005394
AU2686   AU        0.260926    0.697040    0.532751     0.007504
AU2687   AU        0.294672    0.660802    0.532528     0.007504
PD2688   PD        0.296121    0.696783    0.567539     0.005394
AU2689   AU        0.329472    0.661106    0.565069     0.007504
AU2690   AU        0.326854    0.696748    0.531215     0.007504
AU2691   AU        0.361394    0.662381    0.533418     0.007504
AU2692   AU        0.363316    0.696709    0.564573     0.007504
AU2693   AU        0.397619    0.663220    0.565347     0.007504
AU2694   AU        0.396546    0.697294    0.534224     0.007504
AU2695   AU        0.430807    0.662100    0.531080     0.007504
AU2696   AU        0.431677    0.697767    0.564517     0.007504
AU2697   AU        0.464573    0.664529    0.565842     0.007504
AU2698   AU        0.464920    0.695791    0.530965     0.007504
AU2699   AU        0.498096    0.664310    0.530493     0.007504
AU2700   AU        0.500078    0.696438    0.563287     0.007504
AU2701   AU        0.533053    0.663669    0.564105     0.007504
AU2702   AU        0.532430    0.698046    0.532797     0.007504
AU2703   AU        0.564920    0.664342    0.531866     0.007504
AU2704   AU        0.566291    0.697012    0.565750     0.007504
AU2705   AU        0.599213    0.662653    0.565623     0.007504
AU2706   AU        0.599413    0.699808    0.531746     0.007504
AU2707   AU        0.632162    0.663955    0.530986     0.007504
AU2708   AU        0.629438    0.698551    0.564823     0.007504
PD2709   PD        0.664729    0.659786    0.567370     0.005394
PD2710   PD        0.665733    0.695736    0.532161     0.005394
PD2711   PD        0.698435    0.661610    0.531017     0.005394
PD2712   PD        0.699421    0.696714    0.568208     0.005394
PD2713   PD        0.729790    0.660107    0.564210     0.005394
PD2714   PD        0.732870    0.698865    0.531888     0.005394
PD2715   PD        0.762689    0.662968    0.527592     0.005394
PD2716   PD        0.161351    0.728236    0.530900     0.005394
PD2717   PD        0.194360    0.731961    0.564762     0.005394
PD2718   PD        0.194952    0.766918    0.530218     0.005394
PD2719   PD        0.232349    0.732548    0.532297     0.005394
PD2720   PD        0.227393    0.766444    0.565323     0.005394
PD2721   PD        0.261854    0.734138    0.565070     0.005394
PD2722   PD        0.257595    0.766087    0.532954     0.005394
AU2723   AU        0.295133    0.734886    0.531722     0.007504
PD2724   PD        0.298158    0.768174    0.569994     0.005394
PD2725   PD        0.327702    0.732249    0.564880     0.005394
PD2726   PD        0.327463    0.767100    0.531916     0.005394
AU2727   AU        0.361566    0.733793    0.533217     0.007504
PD2728   PD        0.366280    0.766320    0.564630     0.005394
AU2729   AU        0.395975    0.733005    0.565271     0.007504
AU2730   AU        0.396779    0.768519    0.530970     0.007504
AU2731   AU        0.429469    0.732268    0.531608     0.007504
AU2732   AU        0.431009    0.766563    0.565645     0.007504
PD2733   PD        0.464251    0.733928    0.563701     0.005394
PD2734   PD        0.463510    0.766255    0.532280     0.005394
AU2735   AU        0.499986    0.731908    0.532483     0.007504
PD2736   PD        0.497097    0.768167    0.563256     0.005394
AU2737   AU        0.532022    0.734907    0.563421     0.007504
AU2738   AU        0.531498    0.769528    0.531896     0.007504
AU2739   AU        0.567136    0.734301    0.531460     0.007504
AU2740   AU        0.565130    0.767853    0.564535     0.007504
PD2741   PD        0.598506    0.733828    0.566606     0.005394
AU2742   AU        0.600547    0.768274    0.531445     0.007504
AU2743   AU        0.631873    0.733639    0.530252     0.007504
PD2744   PD        0.631922    0.768639    0.566441     0.005394
PD2745   PD        0.664836    0.733363    0.561757     0.005394
PD2746   PD        0.664016    0.766857    0.534295     0.005394
PD2747   PD        0.697886    0.731197    0.527851     0.005394
PD2748   PD        0.223994    0.800982    0.529675     0.005394
PD2749   PD        0.263187    0.802551    0.562660     0.005394
PD2750   PD        0.261074    0.873820    0.496985     0.005394
PD2751   PD        0.298817    0.802678    0.531070     0.005394
PD2752   PD        0.292168    0.878406    0.601931     0.005394
PD2753   PD        0.332373    0.802160    0.565980     0.005394
PD2754   PD        0.330555    0.835294    0.530922     0.005394
PD2755   PD        0.364953    0.802783    0.533074     0.005394
PD2756   PD        0.365321    0.835472    0.565198     0.005394
AU2757   AU        0.395290    0.800266    0.564841     0.007504
PD2758   PD        0.396901    0.834376    0.530617     0.005394
PD2759   PD        0.427453    0.800259    0.532794     0.005394
PD2760   PD        0.426265    0.836165    0.562408     0.005394
PD2761   PD        0.463830    0.803937    0.565336     0.005394
PD2762   PD        0.465374    0.836331    0.529582     0.005394
PD2763   PD        0.498773    0.804136    0.529831     0.005394
PD2764   PD        0.494335    0.837109    0.562950     0.005394
PD2765   PD        0.532253    0.802925    0.563653     0.005394
PD2766   PD        0.530620    0.837919    0.531034     0.005394
PD2767   PD        0.564049    0.803077    0.532042     0.005394
PD2768   PD        0.564042    0.835946    0.568285     0.005394
AU2769   AU        0.597745    0.802915    0.566117     0.007504
PD2770   PD        0.632954    0.835398    0.565428     0.005394
PD2771   PD        0.634197    0.800914    0.531729     0.005394
PD2772   PD        0.432346    0.872436    0.528092     0.005394
PD2773   PD        0.328906    0.056768    0.602027     0.005394
PD2774   PD        0.361200    0.057676    0.635360     0.005394
PD2775   PD        0.406285    0.051140    0.600258     0.005394
PD2776   PD        0.429626    0.056144    0.634065     0.005394
PD2777   PD        0.463387    0.051049    0.600693     0.005394
PD2778   PD        0.499167    0.013431    0.592209     0.005394
PD2779   PD        0.530083    0.055719    0.597825     0.005394
PD2780   PD        0.198441    0.127860    0.596585     0.005394
PD2781   PD        0.228986    0.124548    0.628906     0.005394
PD2782   PD        0.264528    0.091673    0.634701     0.005394
PD2783   PD        0.260808    0.124071    0.598928     0.005394
AU2784   AU        0.293935    0.090733    0.600452     0.007504
AU2785   AU        0.297059    0.127251    0.631760     0.007504
PD2786   PD        0.327320    0.090287    0.634923     0.005394
AU2787   AU        0.328169    0.123742    0.599919     0.007504
PD2788   PD        0.359450    0.091546    0.600630     0.005394
AU2789   AU        0.360043    0.124261    0.632347     0.007504
PD2790   PD        0.394246    0.089062    0.631354     0.005394
AU2791   AU        0.395061    0.124932    0.598697     0.007504
PD2792   PD        0.429942    0.091009    0.598287     0.005394
AU2793   AU        0.429323    0.125598    0.633388     0.007504
PD2794   PD        0.461789    0.093452    0.632879     0.005394
PD2795   PD        0.461987    0.127554    0.598298     0.005394
PD2796   PD        0.495971    0.088738    0.597830     0.005394
PD2797   PD        0.499022    0.123590    0.633032     0.005394
PD2798   PD        0.532737    0.087811    0.632368     0.005394
PD2799   PD        0.533929    0.124402    0.598012     0.005394
PD2800   PD        0.603516    0.053388    0.602980     0.005394
PD2801   PD        0.565164    0.124031    0.631583     0.005394
PD2802   PD        0.621015    0.084554    0.673167     0.005394
PD2803   PD        0.597863    0.126022    0.595699     0.005394
PD2804   PD        0.626770    0.127964    0.629402     0.005394
PD2805   PD        0.662875    0.127218    0.597642     0.005394
PD2806   PD        0.132378    0.197445    0.597511     0.005394
PD2807   PD        0.162492    0.162841    0.595470     0.005394
PD2808   PD        0.165613    0.199302    0.631043     0.005394
PD2809   PD        0.195788    0.161247    0.630606     0.005394
AU2810   AU        0.196340    0.195064    0.596068     0.007504
AU2811   AU        0.228777    0.163213    0.600189     0.007504
PD2812   PD        0.228988    0.196840    0.632826     0.005394
PD2813   PD        0.262585    0.161103    0.631478     0.005394
AU2814   AU        0.261543    0.197521    0.600720     0.007504
AU2815   AU        0.294502    0.160441    0.601180     0.007504
AU2816   AU        0.296591    0.195507    0.633045     0.007504
AU2817   AU        0.329532    0.160116    0.633070     0.007504
AU2818   AU        0.330774    0.196522    0.601452     0.007504
AU2819   AU        0.361606    0.158496    0.600549     0.007504
AU2820   AU        0.363201    0.197922    0.633575     0.007504
PD2821   PD        0.393087    0.159405    0.632729     0.005394
AU2822   AU        0.394848    0.196709    0.600853     0.007504
AU2823   AU        0.427737    0.160945    0.599850     0.007504
AU2824   AU        0.428891    0.195785    0.632590     0.007504
PD2825   PD        0.462116    0.158864    0.632243     0.005394
AU2826   AU        0.463620    0.195155    0.597390     0.007504
PD2827   PD        0.500780    0.159890    0.599015     0.005394
PD2828   PD        0.494502    0.196257    0.633922     0.005394
PD2829   PD        0.532180    0.161481    0.634773     0.005394
PD2830   PD        0.531710    0.195862    0.597459     0.005394
AU2831   AU        0.564372    0.161019    0.598836     0.007504
PD2832   PD        0.563129    0.197273    0.632336     0.005394
PD2833   PD        0.598355    0.159118    0.631003     0.005394
PD2834   PD        0.598067    0.196010    0.597840     0.005394
PD2835   PD        0.631889    0.162559    0.598136     0.005394
PD2836   PD        0.633597    0.198256    0.631420     0.005394
PD2837   PD        0.662917    0.163417    0.632856     0.005394
PD2838   PD        0.664438    0.200482    0.598631     0.005394
PD2839   PD        0.729890    0.163183    0.636302     0.005394
PD2840   PD        0.696485    0.195110    0.630271     0.005394
PD2841   PD        0.730448    0.199615    0.599203     0.005394
PD2842   PD        0.067637    0.269126    0.663960     0.005394
PD2843   PD        0.131497    0.234051    0.628858     0.005394
PD2844   PD        0.129865    0.266819    0.600797     0.005394
PD2845   PD        0.164989    0.230436    0.599254     0.005394
AU2846   AU        0.162503    0.267039    0.632793     0.007504
PD2847   PD        0.196062    0.232441    0.632967     0.005394
PD2848   PD        0.198161    0.268190    0.601648     0.005394
PD2849   PD        0.228593    0.233173    0.600879     0.005394
AU2850   AU        0.228970    0.265917    0.634120     0.007504
PD2851   PD        0.263997    0.229841    0.633745     0.005394
AU2852   AU        0.262513    0.270524    0.602507     0.007504
PD2853   PD        0.295119    0.232258    0.599747     0.005394
AU2854   AU        0.295555    0.265633    0.632126     0.007504
AU2855   AU        0.330218    0.230185    0.634190     0.007504
AU2856   AU        0.329052    0.265166    0.600628     0.007504
AU2857   AU        0.361822    0.232264    0.599852     0.007504
AU2858   AU        0.363793    0.266824    0.634050     0.007504
AU2859   AU        0.395470    0.232785    0.632570     0.007504
AU2860   AU        0.394345    0.266886    0.599593     0.007504
AU2861   AU        0.427714    0.232774    0.598970     0.007504
AU2862   AU        0.428723    0.267497    0.633325     0.007504
AU2863   AU        0.463005    0.232228    0.634494     0.007504
AU2864   AU        0.462382    0.268087    0.601734     0.007504
PD2865   PD        0.499376    0.231749    0.599276     0.005394
AU2866   AU        0.495243    0.266017    0.634690     0.007504
PD2867   PD        0.530315    0.234359    0.631463     0.005394
AU2868   AU        0.531372    0.269236    0.596296     0.007504
AU2869   AU        0.562574    0.231949    0.598075     0.007504
AU2870   AU        0.562386    0.267692    0.630883     0.007504
PD2871   PD        0.600396    0.228643    0.630090     0.005394
PD2872   PD        0.597374    0.264043    0.597134     0.005394
AU2873   AU        0.631752    0.230744    0.597115     0.007504
PD2874   PD        0.631768    0.267334    0.632495     0.005394
PD2875   PD        0.667118    0.234494    0.630493     0.005394
PD2876   PD        0.662833    0.266890    0.598295     0.005394
PD2877   PD        0.697260    0.234718    0.596430     0.005394
PD2878   PD        0.695904    0.268347    0.631417     0.005394
PD2879   PD        0.727810    0.233913    0.630556     0.005394
PD2880   PD        0.728436    0.269895    0.597433     0.005394
PD2881   PD        0.761274    0.271818    0.631079     0.005394
PD2882   PD        0.063909    0.336478    0.603885     0.005394
AU2883   AU        0.097548    0.304324    0.600620     0.007504
PD2884   PD        0.098708    0.338383    0.633663     0.005394
AU2885   AU        0.130110    0.303348    0.632429     0.007504
AU2886   AU        0.129422    0.339544    0.599005     0.007504
AU2887   AU        0.161580    0.304751    0.600307     0.007504
AU2888   AU        0.161893    0.338052    0.632325     0.007504
AU2889   AU        0.194090    0.305674    0.632345     0.007504
AU2890   AU        0.195668    0.341192    0.601017     0.007504
AU2891   AU        0.228539    0.305163    0.599886     0.007504
AU2892   AU        0.227696    0.339634    0.634345     0.007504
AU2893   AU        0.262316    0.305109    0.632881     0.007504
AU2894   AU        0.262636    0.338378    0.599853     0.007504
AU2895   AU        0.296328    0.301067    0.601433     0.007504
AU2896   AU        0.296181    0.341090    0.630693     0.007504
AU2897   AU        0.329264    0.302607    0.632053     0.007504
AU2898   AU        0.328539    0.337307    0.601776     0.007504
AU2899   AU        0.360853    0.300409    0.598646     0.007504
AU2900   AU        0.361921    0.337494    0.633321     0.007504
AU2901   AU        0.396226    0.303114    0.633439     0.007504
AU2902   AU        0.394844    0.337038    0.600944     0.007504
AU2903   AU        0.430801    0.302616    0.599884     0.007504
AU2904   AU        0.427728    0.338994    0.634209     0.007504
AU2905   AU        0.464194    0.302153    0.634044     0.007504
AU2906   AU        0.461988    0.337608    0.599432     0.007504
AU2907   AU        0.496591    0.302056    0.600484     0.007504
AU2908   AU        0.497222    0.338704    0.632977     0.007504
AU2909   AU        0.528681    0.302760    0.632791     0.007504
AU2910   AU        0.529875    0.337273    0.599988     0.007504
AU2911   AU        0.565500    0.300264    0.596819     0.007504
PD2912   PD        0.563588    0.342203    0.631784     0.005394
PD2913   PD        0.599564    0.303016    0.629729     0.005394
AU2914   AU        0.598921    0.340302    0.597550     0.007504
AU2915   AU        0.632194    0.304075    0.596657     0.007504
PD2916   PD        0.629744    0.340607    0.633870     0.005394
AU2917   AU        0.664241    0.303637    0.633201     0.007504
AU2918   AU        0.664171    0.341686    0.599539     0.007504
PD2919   PD        0.697887    0.303307    0.596650     0.005394
AU2920   AU        0.697500    0.339739    0.632174     0.007504
PD2921   PD        0.729042    0.305080    0.632741     0.005394
PD2922   PD        0.728329    0.338351    0.597076     0.005394
PD2923   PD        0.761081    0.306576    0.597499     0.005394
PD2924   PD        0.763592    0.338462    0.630187     0.005394
PD2925   PD        0.829754    0.299718    0.600663     0.005394
PD2926   PD        0.065797    0.376725    0.634152     0.005394
PD2927   PD        0.063842    0.407342    0.600347     0.005394
PD2928   PD        0.097419    0.373392    0.599346     0.005394
PD2929   PD        0.096916    0.410702    0.633428     0.005394
PD2930   PD        0.130497    0.379282    0.634357     0.005394
AU2931   AU        0.129838    0.411125    0.600250     0.007504
AU2932   AU        0.160554    0.374205    0.601701     0.007504
AU2933   AU        0.161153    0.413176    0.631974     0.007504
AU2934   AU        0.193029    0.374094    0.633767     0.007504
AU2935   AU        0.192797    0.409313    0.599715     0.007504
AU2936   AU        0.226825    0.375521    0.600694     0.007504
PD2937   PD        0.225308    0.410635    0.633444     0.005394
AU2938   AU        0.261148    0.373437    0.632429     0.007504
AU2939   AU        0.261396    0.410181    0.599096     0.007504
AU2940   AU        0.296157    0.375808    0.600104     0.007504
PD2941   PD        0.298562    0.412010    0.631032     0.005394
AU2942   AU        0.327899    0.375332    0.633534     0.007504
AU2943   AU        0.329966    0.410998    0.598643     0.007504
AU2944   AU        0.361696    0.375245    0.598277     0.007504
AU2945   AU        0.363879    0.409625    0.631972     0.007504
AU2946   AU        0.397069    0.376224    0.634410     0.007504
AU2947   AU        0.397301    0.411870    0.600367     0.007504
AU2948   AU        0.428612    0.376921    0.601702     0.007504
AU2949   AU        0.430070    0.411890    0.634116     0.007504
AU2950   AU        0.462409    0.373634    0.634457     0.007504
AU2951   AU        0.464162    0.412252    0.598330     0.007504
AU2952   AU        0.496297    0.372221    0.598287     0.007504
AU2953   AU        0.495333    0.412044    0.631697     0.007504
AU2954   AU        0.529961    0.377803    0.630135     0.007504
AU2955   AU        0.531309    0.412090    0.599543     0.007504
AU2956   AU        0.566383    0.378540    0.599257     0.007504
AU2957   AU        0.564374    0.413128    0.632041     0.007504
AU2958   AU        0.597551    0.375038    0.630986     0.007504
AU2959   AU        0.599123    0.411082    0.599688     0.007504
AU2960   AU        0.631442    0.376867    0.597560     0.007504
AU2961   AU        0.632455    0.411890    0.633876     0.007504
AU2962   AU        0.666499    0.376420    0.631344     0.007504
AU2963   AU        0.665878    0.411340    0.598938     0.007504
AU2964   AU        0.698509    0.376167    0.598921     0.007504
AU2965   AU        0.697056    0.411971    0.632160     0.007504
AU2966   AU        0.728795    0.376827    0.631652     0.007504
PD2967   PD        0.729133    0.412853    0.599512     0.005394
PD2968   PD        0.763274    0.373937    0.598991     0.005394
PD2969   PD        0.762168    0.413459    0.633938     0.005394
PD2970   PD        0.793403    0.380269    0.631323     0.005394
PD2971   PD        0.796375    0.412923    0.598737     0.005394
PD2972   PD        0.064020    0.410192    0.665368     0.005394
PD2973   PD        0.062502    0.476993    0.601097     0.005394
AU2974   AU        0.097059    0.445936    0.601038     0.007504
AU2975   AU        0.097198    0.482300    0.631469     0.007504
AU2976   AU        0.129953    0.446786    0.633157     0.007504
AU2977   AU        0.128851    0.484462    0.598270     0.007504
AU2978   AU        0.161230    0.447780    0.599184     0.007504
AU2979   AU        0.161763    0.482894    0.632637     0.007504
AU2980   AU        0.192303    0.447774    0.630721     0.007504
AU2981   AU        0.193563    0.481901    0.599549     0.007504
AU2982   AU        0.227548    0.444173    0.597710     0.007504
AU2983   AU        0.226405    0.482615    0.632174     0.007504
AU2984   AU        0.259077    0.448745    0.633253     0.007504
AU2985   AU        0.260727    0.484107    0.600737     0.007504
AU2986   AU        0.294151    0.448443    0.598098     0.007504
AU2987   AU        0.294439    0.483337    0.632604     0.007504
AU2988   AU        0.330250    0.444275    0.632581     0.007504
AU2989   AU        0.329729    0.481567    0.599555     0.007504
AU2990   AU        0.364917    0.446270    0.601068     0.007504
AU2991   AU        0.362546    0.481289    0.633991     0.007504
AU2992   AU        0.396526    0.447207    0.633894     0.007504
AU2993   AU        0.395348    0.483267    0.600039     0.007504
AU2994   AU        0.430766    0.445684    0.597262     0.007504
AU2995   AU        0.428803    0.481905    0.634051     0.007504
AU2996   AU        0.463886    0.447423    0.632077     0.007504
AU2997   AU        0.462656    0.483245    0.600907     0.007504
AU2998   AU        0.499499    0.448228    0.597840     0.007504
AU2999   AU        0.497703    0.481552    0.631172     0.007504
AU3000   AU        0.531947    0.446171    0.632497     0.007504
AU3001   AU        0.531633    0.484424    0.599603     0.007504
AU3002   AU        0.566201    0.445841    0.599551     0.007504
AU3003   AU        0.564974    0.483069    0.634012     0.007504
AU3004   AU        0.598635    0.446047    0.632467     0.007504
AU3005   AU        0.598981    0.482831    0.598227     0.007504
PD3006   PD        0.633288    0.447288    0.598743     0.005394
AU3007   AU        0.630225    0.485307    0.633009     0.007504
AU3008   AU        0.664853    0.448483    0.632315     0.007504
AU3009   AU        0.664712    0.482905    0.598966     0.007504
AU3010   AU        0.698281    0.446444    0.598310     0.007504
AU3011   AU        0.698149    0.484947    0.630279     0.007504
AU3012   AU        0.729166    0.449747    0.631179     0.007504
AU3013   AU        0.731759    0.483002    0.596735     0.007504
AU3014   AU        0.763580    0.447800    0.598122     0.007504
PD3015   PD        0.762207    0.482823    0.630373     0.005394
PD3016   PD        0.794599    0.447128    0.632103     0.005394
PD3017   PD        0.796534    0.481932    0.599061     0.005394
PD3018   PD        0.060229    0.512686    0.628052     0.005394
PD3019   PD        0.065231    0.552454    0.596018     0.005394
PD3020   PD        0.094224    0.518059    0.599800     0.005394
PD3021   PD        0.096992    0.552169    0.634378     0.005394
PD3022   PD        0.127743    0.518943    0.632490     0.005394
PD3023   PD        0.127174    0.553056    0.598053     0.005394
PD3024   PD        0.158990    0.519792    0.597674     0.005394
PD3025   PD        0.159076    0.555356    0.631913     0.005394
PD3026   PD        0.192682    0.518719    0.631174     0.005394
AU3027   AU        0.195311    0.554217    0.599990     0.007504
AU3028   AU        0.227001    0.518090    0.599355     0.007504
PD3029   PD        0.228146    0.554033    0.630101     0.005394
AU3030   AU        0.260833    0.519553    0.633936     0.007504
PD3031   PD        0.260103    0.555169    0.597534     0.005394
AU3032   AU        0.295858    0.519096    0.599918     0.007504
AU3033   AU        0.296457    0.553278    0.633231     0.007504
AU3034   AU        0.328870    0.518588    0.632978     0.007504
AU3035   AU        0.329355    0.554681    0.599463     0.007504
AU3036   AU        0.360565    0.519492    0.599029     0.007504
AU3037   AU        0.362405    0.554327    0.631520     0.007504
AU3038   AU        0.397576    0.519171    0.631319     0.007504
AU3039   AU        0.396427    0.553910    0.599550     0.007504
AU3040   AU        0.430182    0.517729    0.600699     0.007504
AU3041   AU        0.429674    0.556031    0.635487     0.007504
AU3042   AU        0.464073    0.517568    0.632862     0.007504
AU3043   AU        0.463456    0.554412    0.600855     0.007504
AU3044   AU        0.497058    0.520114    0.600055     0.007504
AU3045   AU        0.496161    0.555389    0.631616     0.007504
AU3046   AU        0.530612    0.516966    0.633763     0.007504
AU3047   AU        0.530776    0.553956    0.601209     0.007504
AU3048   AU        0.564739    0.520018    0.598261     0.007504
AU3049   AU        0.563622    0.555679    0.631603     0.007504
AU3050   AU        0.598804    0.519822    0.632447     0.007504
AU3051   AU        0.599694    0.556254    0.599944     0.007504
AU3052   AU        0.629552    0.519379    0.599735     0.007504
AU3053   AU        0.632820    0.554089    0.632603     0.007504
AU3054   AU        0.665535    0.519031    0.630784     0.007504
AU3055   AU        0.663713    0.555640    0.599516     0.007504
AU3056   AU        0.697957    0.520694    0.597665     0.007504
AU3057   AU        0.698101    0.554931    0.632295     0.007504
AU3058   AU        0.727577    0.520909    0.631715     0.007504
AU3059   AU        0.731385    0.555556    0.597568     0.007504
PD3060   PD        0.764038    0.518398    0.599298     0.005394
PD3061   PD        0.762308    0.553131    0.631037     0.005394
PD3062   PD        0.795337    0.520539    0.628014     0.005394
PD3063   PD        0.794381    0.555995    0.598638     0.005394
PD3064   PD        0.095674    0.588557    0.597990     0.005394
PD3065   PD        0.094417    0.622429    0.633748     0.005394
PD3066   PD        0.129263    0.591302    0.634460     0.005394
PD3067   PD        0.127259    0.625772    0.599587     0.005394
PD3068   PD        0.162292    0.588416    0.599586     0.005394
AU3069   AU        0.163609    0.624906    0.633357     0.007504
AU3070   AU        0.195914    0.590147    0.633303     0.007504
PD3071   PD        0.193734    0.627444    0.600379     0.005394
AU3072   AU        0.227686    0.591531    0.600425     0.007504
AU3073   AU        0.228098    0.625590    0.633582     0.007504
AU3074   AU        0.262150    0.590803    0.631203     0.007504
AU3075   AU        0.261787    0.623258    0.598906     0.007504
AU3076   AU        0.295432    0.589551    0.599130     0.007504
AU3077   AU        0.294769    0.625682    0.633717     0.007504
AU3078   AU        0.327545    0.590848    0.633449     0.007504
AU3079   AU        0.328860    0.624797    0.599781     0.007504
AU3080   AU        0.361848    0.591052    0.600313     0.007504
AU3081   AU        0.364782    0.626728    0.632548     0.007504
AU3082   AU        0.395631    0.591743    0.633818     0.007504
AU3083   AU        0.398088    0.625969    0.600795     0.007504
AU3084   AU        0.430955    0.591299    0.600060     0.007504
AU3085   AU        0.429018    0.625585    0.633526     0.007504
AU3086   AU        0.462307    0.591580    0.632878     0.007504
AU3087   AU        0.465595    0.626690    0.600271     0.007504
AU3088   AU        0.497118    0.591739    0.599931     0.007504
AU3089   AU        0.497587    0.626786    0.632271     0.007504
AU3090   AU        0.529390    0.590635    0.632739     0.007504
AU3091   AU        0.532367    0.628273    0.598983     0.007504
AU3092   AU        0.563634    0.590727    0.599969     0.007504
AU3093   AU        0.566430    0.626911    0.630260     0.007504
AU3094   AU        0.599994    0.592432    0.630596     0.007504
AU3095   AU        0.599730    0.628117    0.599609     0.007504
AU3096   AU        0.632900    0.591812    0.600311     0.007504
AU3097   AU        0.632386    0.626150    0.634144     0.007504
PD3098   PD        0.664057    0.589076    0.631886     0.005394
AU3099   AU        0.663953    0.624965    0.599019     0.007504
AU3100   AU        0.697663    0.590251    0.600016     0.007504
AU3101   AU        0.697795    0.625519    0.632925     0.007504
AU3102   AU        0.731561    0.589805    0.630162     0.007504
PD3103   PD        0.729819    0.624370    0.598829     0.005394
AU3104   AU        0.763625    0.591847    0.595864     0.007504
PD3105   PD        0.761453    0.628075    0.628526     0.005394
PD3106   PD        0.130323    0.662180    0.633706     0.005394
PD3107   PD        0.130534    0.696422    0.596054     0.005394
PD3108   PD        0.160777    0.658540    0.600468     0.005394
PD3109   PD        0.162780    0.693590    0.633487     0.005394
AU3110   AU        0.194808    0.660027    0.634892     0.007504
PD3111   PD        0.195766    0.693318    0.600596     0.005394
PD3112   PD        0.228389    0.657256    0.598855     0.005394
PD3113   PD        0.228670    0.693154    0.631280     0.005394
PD3114   PD        0.261657    0.659754    0.633243     0.005394
PD3115   PD        0.264135    0.695147    0.599935     0.005394
PD3116   PD        0.296930    0.664200    0.597704     0.005394
AU3117   AU        0.295755    0.694243    0.633005     0.007504
AU3118   AU        0.327784    0.660183    0.632379     0.007504
PD3119   PD        0.328562    0.698830    0.600155     0.005394
PD3120   PD        0.362527    0.662197    0.600002     0.005394
AU3121   AU        0.362527    0.696368    0.633775     0.007504
AU3122   AU        0.398165    0.662107    0.631186     0.007504
AU3123   AU        0.396995    0.696680    0.598208     0.007504
AU3124   AU        0.431131    0.660386    0.598414     0.007504
AU3125   AU        0.429829    0.696739    0.631495     0.007504
AU3126   AU        0.462806    0.661303    0.632549     0.007504
PD3127   PD        0.464183    0.696668    0.599904     0.005394
AU3128   AU        0.499405    0.661925    0.598330     0.007504
AU3129   AU        0.497610    0.699991    0.632444     0.007504
AU3130   AU        0.531336    0.664822    0.633447     0.007504
AU3131   AU        0.530918    0.700327    0.598206     0.007504
AU3132   AU        0.563885    0.664335    0.597527     0.007504
PD3133   PD        0.565435    0.701290    0.630532     0.005394
PD3134   PD        0.598837    0.663671    0.631987     0.005394
AU3135   AU        0.596974    0.697795    0.597874     0.007504
AU3136   AU        0.632250    0.662041    0.599520     0.007504
PD3137   PD        0.632268    0.698817    0.630446     0.005394
AU3138   AU        0.663595    0.661472    0.632836     0.007504
PD3139   PD        0.663826    0.698009    0.597234     0.005394
AU3140   AU        0.698378    0.662785    0.600576     0.007504
PD3141   PD        0.696339    0.694665    0.631236     0.005394
PD3142   PD        0.728784    0.662405    0.632330     0.005394
PD3143   PD        0.732996    0.696445    0.602581     0.005394
PD3144   PD        0.163738    0.726777    0.598861     0.005394
PD3145   PD        0.196919    0.728107    0.633930     0.005394
PD3146   PD        0.189796    0.770929    0.595703     0.005394
PD3147   PD        0.229813    0.732053    0.598040     0.005394
PD3148   PD        0.140998    0.801973    0.642113     0.005394
PD3149   PD        0.262492    0.729483    0.632281     0.005394
PD3150   PD        0.263234    0.766152    0.599639     0.005394
AU3151   AU        0.295549    0.730734    0.598692     0.007504
AU3152   AU        0.296626    0.766785    0.632539     0.007504
AU3153   AU        0.329120    0.731818    0.630821     0.007504
PD3154   PD        0.332330    0.765495    0.600150     0.005394
AU3155   AU        0.364899    0.730704    0.597709     0.007504
PD3156   PD        0.363993    0.766149    0.631677     0.005394
AU3157   AU        0.396271    0.731062    0.631090     0.007504
PD3158   PD        0.398169    0.767304    0.598233     0.005394
PD3159   PD        0.432224    0.730997    0.600491     0.005394
PD3160   PD        0.430759    0.770787    0.633553     0.005394
PD3161   PD        0.465091    0.733737    0.631111     0.005394
PD3162   PD        0.462249    0.767592    0.601159     0.005394
PD3163   PD        0.494511    0.733859    0.595372     0.005394
PD3164   PD        0.499179    0.769405    0.630686     0.005394
PD3165   PD        0.531440    0.732504    0.633923     0.005394
PD3166   PD        0.532221    0.767985    0.596071     0.005394
AU3167   AU        0.565837    0.735048    0.599232     0.007504
PD3168   PD        0.565284    0.766973    0.632241     0.005394
AU3169   AU        0.598524    0.732028    0.631721     0.007504
AU3170   AU        0.599100    0.768307    0.598264     0.007504
PD3171   PD        0.632502    0.732808    0.597788     0.005394
AU3172   AU        0.631422    0.766512    0.634098     0.007504
PD3173   PD        0.665712    0.731580    0.629609     0.005394
PD3174   PD        0.661757    0.770356    0.599081     0.005394
PD3175   PD        0.696405    0.732039    0.597685     0.005394
PD3176   PD        0.272393    0.807602    0.639027     0.005394
PD3177   PD        0.294932    0.802252    0.601329     0.005394
PD3178   PD        0.331678    0.801688    0.632171     0.005394
PD3179   PD        0.332855    0.836114    0.598747     0.005394
AU3180   AU        0.363056    0.801693    0.598684     0.007504
PD3181   PD        0.364396    0.837461    0.633098     0.005394
PD3182   PD        0.394174    0.800760    0.630493     0.005394
PD3183   PD        0.394324    0.836204    0.597359     0.005394
PD3184   PD        0.430759    0.802027    0.598496     0.005394
PD3185   PD        0.427755    0.838245    0.629706     0.005394
PD3186   PD        0.462809    0.805211    0.631445     0.005394
PD3187   PD        0.461826    0.841539    0.598421     0.005394
PD3188   PD        0.497121    0.803780    0.597553     0.005394
PD3189   PD        0.498238    0.837694    0.634489     0.005394
PD3190   PD        0.533156    0.801550    0.632055     0.005394
PD3191   PD        0.552672    0.863308    0.628020     0.005394
PD3192   PD        0.567223    0.803282    0.599067     0.005394
PD3193   PD        0.598651    0.799256    0.631636     0.005394
PD3194   PD        0.266388    0.125103    0.664444     0.005394
PD3195   PD        0.294622    0.125549    0.700665     0.005394
PD3196   PD        0.331337    0.127486    0.666464     0.005394
PD3197   PD        0.363613    0.090230    0.665211     0.005394
PD3198   PD        0.363242    0.126725    0.697766     0.005394
PD3199   PD        0.395310    0.091380    0.698855     0.005394
AU3200   AU        0.395019    0.125016    0.664963     0.007504
PD3201   PD        0.427863    0.089043    0.666140     0.005394
PD3202   PD        0.428918    0.126103    0.700722     0.005394
PD3203   PD        0.463818    0.090869    0.699816     0.005394
PD3204   PD        0.459235    0.125371    0.666609     0.005394
PD3205   PD        0.497441    0.090357    0.667089     0.005394
PD3206   PD        0.496141    0.125292    0.697251     0.005394
PD3207   PD        0.528023    0.125922    0.666073     0.005394
PD3208   PD        0.561929    0.125420    0.697530     0.005394
PD3209   PD        0.595940    0.126330    0.668636     0.005394
PD3210   PD        0.192767    0.195874    0.664227     0.005394
PD3211   PD        0.225862    0.159580    0.662218     0.005394
PD3212   PD        0.232703    0.194784    0.697264     0.005394
PD3213   PD        0.264272    0.160703    0.698301     0.005394
PD3214   PD        0.263381    0.194349    0.663564     0.005394
AU3215   AU        0.295330    0.160369    0.666562     0.007504
PD3216   PD        0.298018    0.195796    0.700880     0.005394
AU3217   AU        0.329676    0.159887    0.698223     0.007504
AU3218   AU        0.329617    0.194415    0.665533     0.007504
AU3219   AU        0.362914    0.161418    0.665437     0.007504
AU3220   AU        0.360765    0.195599    0.697908     0.007504
PD3221   PD        0.397213    0.161312    0.697886     0.005394
PD3222   PD        0.394884    0.195699    0.668880     0.005394
AU3223   AU        0.428982    0.160952    0.663459     0.007504
PD3224   PD        0.429560    0.197864    0.698937     0.005394
PD3225   PD        0.464697    0.161393    0.698252     0.005394
AU3226   AU        0.461809    0.198182    0.667824     0.007504
PD3227   PD        0.494100    0.159221    0.665239     0.005394
PD3228   PD        0.497858    0.197951    0.701849     0.005394
AU3229   AU        0.529485    0.163629    0.700965     0.007504
PD3230   PD        0.530067    0.197416    0.668889     0.005394
AU3231   AU        0.561118    0.161151    0.667847     0.007504
AU3232   AU        0.563610    0.196614    0.699696     0.007504
PD3233   PD        0.595877    0.161340    0.697829     0.005394
AU3234   AU        0.596182    0.194804    0.665205     0.007504
PD3235   PD        0.630170    0.161285    0.664135     0.005394
PD3236   PD        0.626506    0.195805    0.697205     0.005394
PD3237   PD        0.665212    0.197746    0.667903     0.005394
PD3238   PD        0.128403    0.266279    0.663175     0.005394
PD3239   PD        0.160181    0.233159    0.664355     0.005394
PD3240   PD        0.124858    0.273342    0.738311     0.005394
PD3241   PD        0.195813    0.232903    0.697948     0.005394
AU3242   AU        0.195776    0.267460    0.664822     0.007504
AU3243   AU        0.229628    0.230946    0.666343     0.007504
AU3244   AU        0.227090    0.264481    0.698512     0.007504
PD3245   PD        0.260307    0.232711    0.699161     0.005394
AU3246   AU        0.259796    0.266566    0.666105     0.007504
AU3247   AU        0.296897    0.230335    0.667864     0.007504
AU3248   AU        0.296935    0.267467    0.698091     0.007504
AU3249   AU        0.330485    0.230097    0.697614     0.007504
AU3250   AU        0.326416    0.267763    0.665911     0.007504
AU3251   AU        0.362403    0.232236    0.666138     0.007504
PD3252   PD        0.361458    0.268038    0.699959     0.005394
AU3253   AU        0.396679    0.231921    0.698967     0.007504
AU3254   AU        0.395245    0.266132    0.666109     0.007504
AU3255   AU        0.429253    0.234079    0.666282     0.007504
AU3256   AU        0.428669    0.267928    0.700464     0.007504
AU3257   AU        0.461839    0.231620    0.700246     0.007504
AU3258   AU        0.463347    0.266065    0.668062     0.007504
AU3259   AU        0.496990    0.231474    0.668786     0.007504
AU3260   AU        0.495812    0.267170    0.701783     0.007504
AU3261   AU        0.529461    0.231633    0.701202     0.007504
AU3262   AU        0.527317    0.265796    0.669321     0.007504
PD3263   PD        0.563865    0.231623    0.665759     0.005394
PD3264   PD        0.561931    0.268242    0.699719     0.005394
PD3265   PD        0.597205    0.234996    0.699515     0.005394
PD3266   PD        0.595188    0.267176    0.662869     0.005394
PD3267   PD        0.632339    0.230896    0.665230     0.005394
AU3268   AU        0.631908    0.267761    0.696463     0.007504
PD3269   PD        0.668145    0.231845    0.699180     0.005394
AU3270   AU        0.665083    0.267076    0.665748     0.007504
PD3271   PD        0.696419    0.232663    0.663993     0.005394
PD3272   PD        0.697418    0.269313    0.697134     0.005394
PD3273   PD        0.731508    0.266397    0.664947     0.005394
PD3274   PD        0.128547    0.303230    0.696988     0.005394
AU3275   AU        0.129713    0.338733    0.666863     0.007504
AU3276   AU        0.161597    0.302011    0.666394     0.007504
PD3277   PD        0.160768    0.337357    0.700339     0.005394
AU3278   AU        0.193465    0.301754    0.697537     0.007504
PD3279   PD        0.195835    0.337622    0.667560     0.005394
AU3280   AU        0.226424    0.302671    0.665241     0.007504
AU3281   AU        0.228274    0.340184    0.698974     0.007504
PD3282   PD        0.261222    0.300836    0.698619     0.005394
PD3283   PD        0.261377    0.339250    0.665632     0.005394
PD3284   PD        0.295974    0.302350    0.665180     0.005394
PD3285   PD        0.294433    0.342479    0.698575     0.005394
AU3286   AU        0.327410    0.303760    0.699495     0.007504
AU3287   AU        0.329440    0.338169    0.665871     0.007504
AU3288   AU        0.362745    0.302924    0.666455     0.007504
AU3289   AU        0.361710    0.338801    0.700429     0.007504
PD3290   PD        0.397425    0.304629    0.698899     0.005394
AU3291   AU        0.395871    0.339089    0.667783     0.007504
AU3292   AU        0.430074    0.301456    0.667026     0.007504
AU3293   AU        0.429053    0.339787    0.698918     0.007504
AU3294   AU        0.463144    0.303022    0.697650     0.007504
AU3295   AU        0.464926    0.337450    0.666045     0.007504
AU3296   AU        0.496891    0.302269    0.666040     0.007504
PD3297   PD        0.496033    0.339419    0.699340     0.005394
AU3298   AU        0.528612    0.301684    0.699978     0.007504
PD3299   PD        0.530040    0.341096    0.664249     0.005394
PD3300   PD        0.561122    0.301554    0.666300     0.005394
PD3301   PD        0.562148    0.337266    0.699958     0.005394
PD3302   PD        0.598605    0.302072    0.699941     0.005394
PD3303   PD        0.597229    0.340063    0.665432     0.005394
PD3304   PD        0.632179    0.302944    0.664139     0.005394
PD3305   PD        0.630610    0.341819    0.697955     0.005394
PD3306   PD        0.663271    0.304371    0.695543     0.005394
AU3307   AU        0.665962    0.340483    0.664296     0.007504
AU3308   AU        0.697313    0.303895    0.664532     0.007504
PD3309   PD        0.698065    0.341742    0.697357     0.005394
PD3310   PD        0.729056    0.306420    0.694646     0.005394
AU3311   AU        0.728555    0.341277    0.664008     0.007504
AU3312   AU        0.094691    0.372709    0.667294     0.007504
PD3313   PD        0.098778    0.415462    0.698573     0.005394
PD3314   PD        0.129523    0.373728    0.699711     0.005394
PD3315   PD        0.129379    0.410547    0.666676     0.005394
AU3316   AU        0.161204    0.375156    0.666735     0.007504
PD3317   PD        0.162473    0.414045    0.696456     0.005394
PD3318   PD        0.194093    0.373447    0.697249     0.005394
AU3319   AU        0.193101    0.411380    0.666251     0.007504
AU3320   AU        0.225220    0.376299    0.665247     0.007504
AU3321   AU        0.226265    0.410264    0.698683     0.007504
PD3322   PD        0.261570    0.373834    0.698933     0.005394
PD3323   PD        0.261143    0.409973    0.663659     0.005394
AU3324   AU        0.295656    0.372606    0.666719     0.007504
AU3325   AU        0.295002    0.411668    0.695952     0.007504
AU3326   AU        0.330915    0.374661    0.699279     0.007504
AU3327   AU        0.331433    0.411366    0.666106     0.007504
AU3328   AU        0.362000    0.374079    0.664949     0.007504
AU3329   AU        0.364384    0.410891    0.698300     0.007504
AU3330   AU        0.396076    0.375691    0.698783     0.007504
AU3331   AU        0.396770    0.410838    0.665844     0.007504
AU3332   AU        0.432246    0.375177    0.665359     0.007504
AU3333   AU        0.431560    0.411674    0.699032     0.007504
AU3334   AU        0.463637    0.376866    0.698562     0.007504
AU3335   AU        0.465018    0.411331    0.666231     0.007504
PD3336   PD        0.499674    0.376790    0.667363     0.005394
AU3337   AU        0.498262    0.411363    0.699994     0.007504
PD3338   PD        0.532433    0.377626    0.700323     0.005394
AU3339   AU        0.531090    0.413955    0.665691     0.007504
PD3340   PD        0.564355    0.376022    0.664643     0.005394
PD3341   PD        0.564400    0.413175    0.697630     0.005394
PD3342   PD        0.598391    0.378129    0.698373     0.005394
AU3343   AU        0.598682    0.411584    0.665464     0.007504
PD3344   PD        0.632051    0.376666    0.662969     0.005394
PD3345   PD        0.631148    0.410449    0.696402     0.005394
PD3346   PD        0.666959    0.376384    0.695772     0.005394
AU3347   AU        0.664907    0.411116    0.665054     0.007504
PD3348   PD        0.699819    0.376802    0.665401     0.005394
PD3349   PD        0.697210    0.411345    0.697219     0.005394
PD3350   PD        0.731459    0.378234    0.700683     0.005394
PD3351   PD        0.730241    0.411340    0.665965     0.005394
PD3352   PD        0.760849    0.378530    0.663544     0.005394
PD3353   PD        0.763166    0.416395    0.698256     0.005394
PD3354   PD        0.094398    0.446696    0.665269     0.005394
PD3355   PD        0.096271    0.483376    0.695900     0.005394
PD3356   PD        0.127782    0.447007    0.696579     0.005394
PD3357   PD        0.128791    0.482953    0.665317     0.005394
AU3358   AU        0.163117    0.449781    0.665907     0.007504
PD3359   PD        0.161110    0.481983    0.698686     0.005394
AU3360   AU        0.196610    0.445966    0.698428     0.007504
PD3361   PD        0.195079    0.481619    0.667529     0.005394
AU3362   AU        0.227305    0.446600    0.664464     0.007504
PD3363   PD        0.228785    0.481122    0.701382     0.005394
AU3364   AU        0.260421    0.446086    0.701291     0.007504
AU3365   AU        0.261717    0.483958    0.665668     0.007504
AU3366   AU        0.295588    0.448454    0.664928     0.007504
AU3367   AU        0.295688    0.482838    0.698101     0.007504
AU3368   AU        0.329556    0.447191    0.699411     0.007504
AU3369   AU        0.329635    0.480830    0.663517     0.007504
AU3370   AU        0.363267    0.447686    0.667626     0.007504
AU3371   AU        0.361960    0.484130    0.698534     0.007504
AU3372   AU        0.396260    0.447046    0.700492     0.007504
PD3373   PD        0.397118    0.484359    0.668778     0.005394
AU3374   AU        0.431420    0.446667    0.667558     0.007504
AU3375   AU        0.432937    0.480497    0.699671     0.007504
AU3376   AU        0.465768    0.444894    0.700218     0.007504
AU3377   AU        0.463239    0.484209    0.666642     0.007504
AU3378   AU        0.497575    0.448181    0.665549     0.007504
AU3379   AU        0.497359    0.482344    0.698919     0.007504
AU3380   AU        0.530913    0.448204    0.700055     0.007504
AU3381   AU        0.532272    0.480639    0.664562     0.007504
AU3382   AU        0.567914    0.446809    0.665891     0.007504
AU3383   AU        0.564577    0.483537    0.698204     0.007504
PD3384   PD        0.599370    0.447753    0.697819     0.005394
AU3385   AU        0.599016    0.484545    0.666538     0.007504
AU3386   AU        0.632380    0.449087    0.666613     0.007504
AU3387   AU        0.632474    0.482765    0.698296     0.007504
AU3388   AU        0.664618    0.448258    0.697635     0.007504
AU3389   AU        0.666207    0.484215    0.663345     0.007504
AU3390   AU        0.696408    0.447125    0.664657     0.007504
PD3391   PD        0.697240    0.485283    0.697671     0.005394
AU3392   AU        0.727993    0.447444    0.697558     0.007504
AU3393   AU        0.727860    0.482522    0.664045     0.007504
PD3394   PD        0.760634    0.448111    0.664091     0.005394
PD3395   PD        0.762924    0.482212    0.692972     0.005394
PD3396   PD        0.096871    0.515905    0.663178     0.005394
PD3397   PD        0.131222    0.517984    0.702473     0.005394
PD3398   PD        0.129762    0.553139    0.667024     0.005394
AU3399   AU        0.161768    0.520163    0.665720     0.007504
AU3400   AU        0.162275    0.554506    0.700367     0.007504
PD3401   PD        0.194523    0.518839    0.700426     0.005394
AU3402   AU        0.194065    0.553217    0.664711     0.007504
PD3403   PD        0.226097    0.520320    0.666207     0.005394
PD3404   PD        0.230703    0.555562    0.697242     0.005394
PD3405   PD        0.261976    0.520005    0.695352     0.005394
PD3406   PD        0.261335    0.554027    0.664088     0.005394
AU3407   AU        0.295433    0.516223    0.666002     0.007504
AU3408   AU        0.295627    0.554313    0.696613     0.007504
AU3409   AU        0.329345    0.519313    0.697430     0.007504
AU3410   AU        0.328564    0.555114    0.663813     0.007504
AU3411   AU        0.363106    0.518472    0.667661     0.007504
AU3412   AU        0.363517    0.553080    0.699518     0.007504
AU3413   AU        0.396058    0.519536    0.699411     0.007504
AU3414   AU        0.393354    0.554735    0.664193     0.007504
AU3415   AU        0.429403    0.519870    0.665584     0.007504
AU3416   AU        0.428777    0.555863    0.698118     0.007504
AU3417   AU        0.461433    0.519840    0.699011     0.007504
AU3418   AU        0.463943    0.555926    0.666163     0.007504
AU3419   AU        0.497507    0.519148    0.666278     0.007504
PD3420   PD        0.495155    0.554063    0.698064     0.005394
AU3421   AU        0.531443    0.515785    0.697042     0.007504
AU3422   AU        0.529754    0.554315    0.664953     0.007504
AU3423   AU        0.564260    0.518477    0.664085     0.007504
PD3424   PD        0.566098    0.556616    0.698586     0.005394
AU3425   AU        0.598028    0.519622    0.697268     0.007504
AU3426   AU        0.598975    0.555616    0.662817     0.007504
AU3427   AU        0.631391    0.519135    0.665371     0.007504
AU3428   AU        0.631439    0.556665    0.697318     0.007504
AU3429   AU        0.664474    0.519501    0.697935     0.007504
AU3430   AU        0.664478    0.554070    0.664625     0.007504
AU3431   AU        0.697965    0.521480    0.665831     0.007504
PD3432   PD        0.697846    0.555867    0.698115     0.005394
PD3433   PD        0.728840    0.555385    0.733007     0.005394
AU3434   AU        0.730322    0.557561    0.665259     0.007504
PD3435   PD        0.760940    0.518356    0.661845     0.005394
PD3436   PD        0.129843    0.591192    0.697572     0.005394
PD3437   PD        0.129284    0.627890    0.664096     0.005394
AU3438   AU        0.161862    0.589556    0.666825     0.007504
PD3439   PD        0.162447    0.625924    0.699390     0.005394
AU3440   AU        0.195640    0.590281    0.700118     0.007504
AU3441   AU        0.196255    0.625094    0.666266     0.007504
AU3442   AU        0.227289    0.589430    0.667465     0.007504
AU3443   AU        0.227793    0.625641    0.697391     0.007504
AU3444   AU        0.262711    0.589133    0.696297     0.007504
AU3445   AU        0.261507    0.624519    0.667039     0.007504
AU3446   AU        0.296363    0.590301    0.664800     0.007504
AU3447   AU        0.294531    0.624423    0.699642     0.007504
AU3448   AU        0.329798    0.589928    0.696776     0.007504
AU3449   AU        0.329443    0.625370    0.665000     0.007504
AU3450   AU        0.361613    0.589392    0.664462     0.007504
PD3451   PD        0.364555    0.623289    0.698508     0.005394
AU3452   AU        0.397396    0.590389    0.698458     0.007504
AU3453   AU        0.396527    0.626559    0.666374     0.007504
AU3454   AU        0.428578    0.590025    0.665251     0.007504
AU3455   AU        0.430848    0.626028    0.697246     0.007504
AU3456   AU        0.462023    0.590021    0.698365     0.007504
AU3457   AU        0.463116    0.626452    0.664008     0.007504
AU3458   AU        0.494987    0.591293    0.663427     0.007504
AU3459   AU        0.496551    0.625101    0.696077     0.007504
AU3460   AU        0.531608    0.591675    0.696576     0.007504
AU3461   AU        0.529231    0.626882    0.664825     0.007504
AU3462   AU        0.564714    0.590228    0.662507     0.007504
PD3463   PD        0.565356    0.625049    0.695410     0.005394
AU3464   AU        0.598911    0.591480    0.695337     0.007504
AU3465   AU        0.598626    0.627744    0.661797     0.007504
AU3466   AU        0.631023    0.590114    0.663288     0.007504
AU3467   AU        0.633905    0.625023    0.696694     0.007504
AU3468   AU        0.665349    0.591366    0.697157     0.007504
AU3469   AU        0.664962    0.624897    0.666213     0.007504
PD3470   PD        0.695812    0.589694    0.663762     0.005394
PD3471   PD        0.697040    0.624943    0.697997     0.005394
PD3472   PD        0.730693    0.589920    0.699130     0.005394
PD3473   PD        0.727896    0.628738    0.665681     0.005394
AU3474   AU        0.163604    0.659520    0.667480     0.007504
AU3475   AU        0.196645    0.660196    0.698201     0.007504
PD3476   PD        0.197631    0.694737    0.667411     0.005394
AU3477   AU        0.229259    0.659097    0.665943     0.007504
PD3478   PD        0.231579    0.695508    0.697372     0.005394
AU3479   AU        0.262938    0.658878    0.698116     0.007504
AU3480   AU        0.263168    0.695483    0.664726     0.007504
AU3481   AU        0.295234    0.661141    0.666133     0.007504
PD3482   PD        0.293930    0.697035    0.697166     0.005394
PD3483   PD        0.327543    0.662272    0.699621     0.005394
AU3484   AU        0.327091    0.697211    0.664943     0.007504
AU3485   AU        0.362608    0.659334    0.665673     0.007504
PD3486   PD        0.361803    0.694656    0.699006     0.005394
AU3487   AU        0.397276    0.659899    0.697632     0.007504
PD3488   PD        0.396259    0.696516    0.664556     0.005394
AU3489   AU        0.429839    0.661428    0.665977     0.007504
AU3490   AU        0.431298    0.696813    0.697329     0.007504
AU3491   AU        0.463632    0.662289    0.697328     0.007504
AU3492   AU        0.464624    0.694519    0.663467     0.007504
AU3493   AU        0.496794    0.661899    0.665444     0.007504
AU3494   AU        0.494918    0.699113    0.697891     0.007504
PD3495   PD        0.527281    0.661715    0.698046     0.005394
PD3496   PD        0.530691    0.699433    0.668183     0.005394
PD3497   PD        0.565690    0.661923    0.664725     0.005394
PD3498   PD        0.563658    0.696615    0.697132     0.005394
PD3499   PD        0.598671    0.660538    0.696151     0.005394
PD3500   PD        0.598047    0.698585    0.662073     0.005394
PD3501   PD        0.633182    0.660249    0.663421     0.005394
PD3502   PD        0.631120    0.697272    0.698751     0.005394
PD3503   PD        0.665266    0.659874    0.698343     0.005394
AU3504   AU        0.663662    0.696129    0.666089     0.007504
PD3505   PD        0.696669    0.662462    0.665358     0.005394
AU3506   AU        0.228960    0.727498    0.663813     0.007504
PD3507   PD        0.260859    0.729606    0.696108     0.005394
PD3508   PD        0.260597    0.764225    0.665355     0.005394
PD3509   PD        0.296121    0.730922    0.662375     0.005394
PD3510   PD        0.297444    0.763152    0.694696     0.005394
PD3511   PD        0.328869    0.731925    0.695042     0.005394
PD3512   PD        0.330690    0.766181    0.662170     0.005394
AU3513   AU        0.363016    0.731862    0.665166     0.007504
PD3514   PD        0.363021    0.766035    0.695246     0.005394
PD3515   PD        0.395037    0.729730    0.695552     0.005394
PD3516   PD        0.397244    0.763954    0.663712     0.005394
AU3517   AU        0.431260    0.729710    0.663668     0.007504
PD3518   PD        0.464703    0.804222    0.699251     0.005394
AU3519   AU        0.462940    0.732782    0.696672     0.007504
PD3520   PD        0.463326    0.770305    0.662614     0.005394
PD3521   PD        0.494834    0.733565    0.665402     0.005394
PD3522   PD        0.496211    0.769114    0.696896     0.005394
PD3523   PD        0.530532    0.734346    0.700122     0.005394
PD3524   PD        0.528359    0.769321    0.665656     0.005394
PD3525   PD        0.564181    0.734261    0.664946     0.005394
PD3526   PD        0.561893    0.766354    0.694455     0.005394
PD3527   PD        0.597357    0.733034    0.699616     0.005394
PD3528   PD        0.598766    0.766022    0.663904     0.005394
PD3529   PD        0.631438    0.729611    0.664462     0.005394
PD3530   PD        0.365314    0.800246    0.660598     0.005394
PD3531   PD        0.390374    0.802103    0.699180     0.005394
PD3532   PD        0.430837    0.804117    0.662390     0.005394
PD3533   PD        0.507628    0.824147    0.709438     0.005394
PD3534   PD        0.498736    0.805154    0.664367     0.005394
PD3535   PD        0.360494    0.090332    0.730294     0.005394
PD3536   PD        0.458884    0.123272    0.729394     0.005394
PD3537   PD        0.262883    0.197242    0.730740     0.005394
PD3538   PD        0.298820    0.161771    0.730394     0.005394
PD3539   PD        0.295092    0.194528    0.764452     0.005394
AU3540   AU        0.330475    0.197620    0.732509     0.007504
PD3541   PD        0.361737    0.162534    0.729607     0.005394
AU3542   AU        0.362987    0.198834    0.765317     0.007504
PD3543   PD        0.367260    0.124042    0.762473     0.005394
PD3544   PD        0.395432    0.197511    0.732175     0.005394
PD3545   PD        0.431825    0.164042    0.731568     0.005394
PD3546   PD        0.429751    0.200232    0.761973     0.005394
PD3547   PD        0.460992    0.163292    0.767252     0.005394
PD3548   PD        0.465309    0.198574    0.734063     0.005394
PD3549   PD        0.495729    0.163785    0.730778     0.005394
PD3550   PD        0.497477    0.198266    0.766243     0.005394
PD3551   PD        0.531250    0.196969    0.734102     0.005394
PD3552   PD        0.564732    0.163090    0.731153     0.005394
PD3553   PD        0.563012    0.198567    0.765363     0.005394
PD3554   PD        0.595861    0.199916    0.730328     0.005394
PD3555   PD        0.194115    0.266863    0.730765     0.005394
PD3556   PD        0.230280    0.232409    0.731846     0.005394
PD3557   PD        0.229335    0.267040    0.764140     0.005394
PD3558   PD        0.264576    0.233283    0.767095     0.005394
PD3559   PD        0.263381    0.264669    0.730863     0.005394
PD3560   PD        0.297761    0.233772    0.730668     0.005394
PD3561   PD        0.297255    0.267715    0.762469     0.005394
PD3562   PD        0.328009    0.231685    0.765798     0.005394
AU3563   AU        0.329011    0.267813    0.731091     0.007504
AU3564   AU        0.362612    0.233803    0.730517     0.007504
AU3565   AU        0.361645    0.266857    0.764038     0.007504
AU3566   AU        0.394325    0.232488    0.763833     0.007504
AU3567   AU        0.396152    0.267337    0.733561     0.007504
PD3568   PD        0.429356    0.234713    0.732990     0.005394
AU3569   AU        0.429432    0.267619    0.763792     0.007504
PD3570   PD        0.461916    0.232347    0.762689     0.005394
AU3571   AU        0.463524    0.267262    0.732461     0.007504
AU3572   AU        0.495022    0.232417    0.732812     0.007504
AU3573   AU        0.496802    0.268187    0.763328     0.007504
PD3574   PD        0.530449    0.234886    0.763200     0.005394
AU3575   AU        0.529849    0.267566    0.732137     0.007504
AU3576   AU        0.563585    0.233643    0.731496     0.007504
PD3577   PD        0.562862    0.269484    0.765008     0.005394
PD3578   PD        0.597427    0.236442    0.763403     0.005394
PD3579   PD        0.595750    0.266466    0.733648     0.005394
PD3580   PD        0.631823    0.230978    0.728304     0.005394
PD3581   PD        0.632017    0.266821    0.759940     0.005394
PD3582   PD        0.663998    0.267989    0.729191     0.005394
PD3583   PD        0.161000    0.306300    0.732732     0.005394
PD3584   PD        0.196849    0.299684    0.762912     0.005394
AU3585   AU        0.195238    0.334956    0.730622     0.007504
PD3586   PD        0.229026    0.301340    0.730043     0.005394
PD3587   PD        0.229032    0.336951    0.764121     0.005394
PD3588   PD        0.262431    0.304903    0.761248     0.005394
PD3589   PD        0.261580    0.338914    0.731193     0.005394
PD3590   PD        0.295850    0.304365    0.732080     0.005394
PD3591   PD        0.295893    0.340174    0.762700     0.005394
AU3592   AU        0.331075    0.303437    0.764346     0.007504
PD3593   PD        0.328734    0.339638    0.729954     0.005394
AU3594   AU        0.364570    0.301569    0.732521     0.007504
AU3595   AU        0.362293    0.340840    0.764205     0.007504
AU3596   AU        0.394943    0.304173    0.762196     0.007504
AU3597   AU        0.393588    0.339354    0.730593     0.007504
AU3598   AU        0.430768    0.302274    0.730971     0.007504
PD3599   PD        0.430057    0.337141    0.761638     0.005394
PD3600   PD        0.462021    0.301991    0.764330     0.005394
PD3601   PD        0.463501    0.339234    0.734028     0.005394
AU3602   AU        0.496940    0.302412    0.731977     0.007504
PD3603   PD        0.495405    0.340451    0.765758     0.005394
AU3604   AU        0.528946    0.302884    0.764898     0.007504
PD3605   PD        0.532577    0.339212    0.733668     0.005394
AU3606   AU        0.563403    0.302296    0.732837     0.007504
PD3607   PD        0.566494    0.339092    0.762609     0.005394
PD3608   PD        0.597345    0.302787    0.763360     0.005394
PD3609   PD        0.597660    0.336355    0.732630     0.005394
AU3610   AU        0.632096    0.302975    0.729468     0.007504
PD3611   PD        0.632319    0.340510    0.762003     0.005394
PD3612   PD        0.693296    0.337376    0.761808     0.005394
PD3613   PD        0.660298    0.340921    0.729135     0.005394
PD3614   PD        0.736138    0.243506    0.703210     0.005394
PD3615   PD        0.130799    0.411905    0.728517     0.005394
PD3616   PD        0.164223    0.373490    0.729356     0.005394
PD3617   PD        0.163973    0.409274    0.763865     0.005394
PD3618   PD        0.196624    0.372069    0.762345     0.005394
AU3619   AU        0.193754    0.409995    0.730394     0.007504
AU3620   AU        0.227112    0.374983    0.731660     0.007504
PD3621   PD        0.228527    0.409147    0.765542     0.005394
PD3622   PD        0.263868    0.373583    0.764889     0.005394
PD3623   PD        0.262275    0.407844    0.732719     0.005394
PD3624   PD        0.294532    0.378600    0.731512     0.005394
PD3625   PD        0.295244    0.410532    0.763198     0.005394
PD3626   PD        0.329622    0.374098    0.762523     0.005394
AU3627   AU        0.328173    0.411765    0.730181     0.007504
AU3628   AU        0.362683    0.375106    0.733305     0.007504
AU3629   AU        0.362382    0.410549    0.762890     0.007504
PD3630   PD        0.397355    0.377292    0.763071     0.005394
AU3631   AU        0.395302    0.412443    0.730993     0.007504
AU3632   AU        0.428224    0.376219    0.729394     0.007504
PD3633   PD        0.428870    0.410685    0.764655     0.005394
AU3634   AU        0.460655    0.373542    0.767247     0.007504
AU3635   AU        0.462672    0.409046    0.732519     0.007504
PD3636   PD        0.498748    0.375816    0.734482     0.005394
PD3637   PD        0.492719    0.409527    0.766465     0.005394
PD3638   PD        0.531098    0.372559    0.766053     0.005394
AU3639   AU        0.531576    0.411865    0.733741     0.007504
PD3640   PD        0.564911    0.378325    0.731395     0.005394
PD3641   PD        0.564979    0.411276    0.764111     0.005394
PD3642   PD        0.597751    0.375374    0.763670     0.005394
PD3643   PD        0.598480    0.413670    0.732170     0.005394
PD3644   PD        0.631134    0.376602    0.729516     0.005394
PD3645   PD        0.632630    0.412763    0.762992     0.005394
PD3646   PD        0.664213    0.375275    0.763858     0.005394
AU3647   AU        0.664202    0.412736    0.730307     0.007504
PD3648   PD        0.695942    0.377235    0.730618     0.005394
PD3649   PD        0.699409    0.413080    0.763388     0.005394
PD3650   PD        0.727260    0.412990    0.730198     0.005394
PD3651   PD        0.091441    0.479929    0.767254     0.005394
PD3652   PD        0.165658    0.447265    0.730747     0.005394
PD3653   PD        0.162791    0.480209    0.763442     0.005394
PD3654   PD        0.195751    0.443978    0.765449     0.005394
PD3655   PD        0.195153    0.476885    0.732818     0.005394
AU3656   AU        0.226783    0.444840    0.733354     0.007504
PD3657   PD        0.230043    0.479864    0.763180     0.005394
PD3658   PD        0.260478    0.444445    0.764163     0.005394
PD3659   PD        0.263463    0.482399    0.731654     0.005394
PD3660   PD        0.295023    0.447020    0.732719     0.005394
PD3661   PD        0.295927    0.481842    0.765990     0.005394
PD3662   PD        0.329390    0.448744    0.764673     0.005394
AU3663   AU        0.330665    0.484724    0.731631     0.007504
AU3664   AU        0.363849    0.447164    0.732432     0.007504
PD3665   PD        0.364046    0.482045    0.765444     0.005394
PD3666   PD        0.395292    0.446536    0.764080     0.005394
AU3667   AU        0.394943    0.483323    0.729898     0.007504
AU3668   AU        0.432511    0.444972    0.731091     0.007504
PD3669   PD        0.432524    0.484285    0.764909     0.005394
AU3670   AU        0.462437    0.446304    0.765183     0.007504
AU3671   AU        0.463892    0.481944    0.733006     0.007504
AU3672   AU        0.498327    0.443281    0.732603     0.007504
PD3673   PD        0.496741    0.482465    0.765802     0.005394
AU3674   AU        0.531716    0.448387    0.765170     0.007504
AU3675   AU        0.531606    0.483042    0.731921     0.007504
AU3676   AU        0.564182    0.448007    0.731010     0.007504
PD3677   PD        0.564974    0.482339    0.764838     0.005394
PD3678   PD        0.598568    0.449618    0.764236     0.005394
AU3679   AU        0.597717    0.483639    0.730497     0.007504
AU3680   AU        0.631155    0.449086    0.731641     0.007504
PD3681   PD        0.631359    0.482771    0.763655     0.005394
PD3682   PD        0.665981    0.446602    0.763097     0.005394
PD3683   PD        0.665236    0.482887    0.730467     0.005394
AU3684   AU        0.696021    0.446016    0.730018     0.007504
PD3685   PD        0.697017    0.485884    0.760790     0.005394
PD3686   PD        0.730449    0.483378    0.727752     0.005394
PD3687   PD        0.167729    0.516632    0.730308     0.005394
PD3688   PD        0.198340    0.520868    0.763868     0.005394
PD3689   PD        0.198664    0.556024    0.730279     0.005394
PD3690   PD        0.226918    0.515431    0.731034     0.005394
PD3691   PD        0.230842    0.556057    0.762209     0.005394
PD3692   PD        0.259309    0.519942    0.765029     0.005394
AU3693   AU        0.263045    0.553026    0.730371     0.007504
AU3694   AU        0.297706    0.518330    0.731785     0.007504
PD3695   PD        0.297633    0.552308    0.768261     0.005394
AU3696   AU        0.330552    0.518939    0.765271     0.007504
PD3697   PD        0.329953    0.557750    0.732943     0.005394
AU3698   AU        0.363329    0.519953    0.732191     0.007504
AU3699   AU        0.364056    0.555544    0.762778     0.007504
PD3700   PD        0.397206    0.520764    0.764653     0.005394
AU3701   AU        0.395819    0.555988    0.731763     0.007504
PD3702   PD        0.428057    0.519612    0.732575     0.005394
PD3703   PD        0.429504    0.554606    0.762353     0.005394
AU3704   AU        0.462862    0.518003    0.764630     0.007504
PD3705   PD        0.464657    0.557503    0.731276     0.005394
PD3706   PD        0.495722    0.517679    0.733477     0.005394
PD3707   PD        0.496893    0.551815    0.766047     0.005394
PD3708   PD        0.532292    0.516586    0.765274     0.005394
PD3709   PD        0.531384    0.553515    0.727327     0.005394
AU3710   AU        0.564888    0.519702    0.730395     0.007504
PD3711   PD        0.565250    0.554333    0.764148     0.005394
AU3712   AU        0.598001    0.518896    0.762899     0.007504
PD3713   PD        0.596807    0.555077    0.729643     0.005394
PD3714   PD        0.630760    0.520005    0.729414     0.005394
PD3715   PD        0.629818    0.551445    0.761517     0.005394
PD3716   PD        0.665173    0.520591    0.760930     0.005394
PD3717   PD        0.661790    0.554861    0.731163     0.005394
PD3718   PD        0.698509    0.519082    0.728724     0.005394
PD3719   PD        0.159425    0.590839    0.729985     0.005394
PD3720   PD        0.201644    0.587988    0.763048     0.005394
PD3721   PD        0.194885    0.624913    0.730473     0.005394
AU3722   AU        0.229812    0.590335    0.729228     0.007504
PD3723   PD        0.229532    0.623514    0.763165     0.005394
PD3724   PD        0.264992    0.588400    0.760908     0.005394
PD3725   PD        0.261040    0.624030    0.730962     0.005394
PD3726   PD        0.295457    0.589155    0.728936     0.005394
PD3727   PD        0.297110    0.625164    0.761872     0.005394
PD3728   PD        0.331168    0.591511    0.763392     0.005394
AU3729   AU        0.329282    0.626830    0.729175     0.007504
PD3730   PD        0.363070    0.591228    0.730505     0.005394
PD3731   PD        0.362911    0.626498    0.762739     0.005394
PD3732   PD        0.397801    0.591041    0.762319     0.005394
AU3733   AU        0.398796    0.627142    0.730512     0.007504
PD3734   PD        0.430327    0.591229    0.730579     0.005394
PD3735   PD        0.430761    0.627219    0.764272     0.005394
PD3736   PD        0.464227    0.591692    0.764518     0.005394
AU3737   AU        0.463760    0.626377    0.732523     0.007504
PD3738   PD        0.496000    0.592386    0.731488     0.005394
PD3739   PD        0.499072    0.628055    0.764045     0.005394
PD3740   PD        0.530336    0.589714    0.766074     0.005394
PD3741   PD        0.529719    0.627217    0.730619     0.005394
AU3742   AU        0.564479    0.592184    0.730379     0.007504
PD3743   PD        0.564123    0.625702    0.763975     0.005394
PD3744   PD        0.597513    0.589483    0.761308     0.005394
PD3745   PD        0.599927    0.625533    0.729426     0.005394
AU3746   AU        0.631930    0.589823    0.731713     0.007504
PD3747   PD        0.628890    0.622492    0.762544     0.005394
PD3748   PD        0.662281    0.587400    0.762202     0.005394
PD3749   PD        0.665728    0.624714    0.730770     0.005394
PD3750   PD        0.695051    0.591071    0.729853     0.005394
PD3751   PD        0.229705    0.658852    0.730637     0.005394
PD3752   PD        0.265803    0.660524    0.766356     0.005394
PD3753   PD        0.262023    0.692519    0.732288     0.005394
PD3754   PD        0.295189    0.661051    0.731002     0.005394
PD3755   PD        0.294863    0.695709    0.764847     0.005394
PD3756   PD        0.327777    0.662615    0.761547     0.005394
PD3757   PD        0.328784    0.700838    0.728844     0.005394
PD3758   PD        0.362968    0.661316    0.729634     0.005394
PD3759   PD        0.365896    0.695387    0.762454     0.005394
PD3760   PD        0.397678    0.662282    0.760825     0.005394
PD3761   PD        0.400409    0.695974    0.730002     0.005394
AU3762   AU        0.430850    0.661355    0.730553     0.007504
PD3763   PD        0.430340    0.695416    0.762276     0.005394
PD3764   PD        0.465580    0.659523    0.765072     0.005394
AU3765   AU        0.463631    0.697794    0.730394     0.007504
AU3766   AU        0.494361    0.660439    0.729766     0.007504
PD3767   PD        0.498257    0.698389    0.760688     0.005394
PD3768   PD        0.530768    0.666719    0.761902     0.005394
PD3769   PD        0.529947    0.698014    0.728299     0.005394
PD3770   PD        0.564262    0.658502    0.730860     0.005394
PD3771   PD        0.529030    0.696879    0.797103     0.005394
PD3772   PD        0.598308    0.659034    0.764403     0.005394
PD3773   PD        0.598002    0.692366    0.730356     0.005394
PD3774   PD        0.632885    0.659711    0.730983     0.005394
PD3775   PD        0.291824    0.725733    0.736095     0.005394
PD3776   PD        0.362053    0.732403    0.730168     0.005394
PD3777   PD        0.397554    0.731535    0.763188     0.005394
PD3778   PD        0.392979    0.816459    0.760744     0.005394
PD3779   PD        0.429577    0.731401    0.730520     0.005394
PD3780   PD        0.491507    0.768658    0.765166     0.005394
PD3781   PD        0.459740    0.766376    0.728845     0.005394
PD3782   PD        0.495375    0.733476    0.729779     0.005394
PD3783   PD        0.561222    0.733068    0.731245     0.005394
PD3784   PD        0.395747    0.196147    0.796344     0.005394
PD3785   PD        0.460570    0.200382    0.797595     0.005394
PD3786   PD        0.261436    0.271665    0.795236     0.005394
PD3787   PD        0.330227    0.270381    0.795491     0.005394
PD3788   PD        0.363795    0.233548    0.795693     0.005394
PD3789   PD        0.361203    0.267251    0.829350     0.005394
PD3790   PD        0.395794    0.270885    0.795974     0.005394
PD3791   PD        0.428848    0.231727    0.795829     0.005394
PD3792   PD        0.430595    0.266999    0.828743     0.005394
PD3793   PD        0.461931    0.267431    0.797379     0.005394
PD3794   PD        0.497801    0.233620    0.795849     0.005394
PD3795   PD        0.496693    0.263056    0.834058     0.005394
PD3796   PD        0.531924    0.269228    0.797609     0.005394
PD3797   PD        0.562695    0.271027    0.831040     0.005394
PD3798   PD        0.259961    0.335354    0.795301     0.005394
PD3799   PD        0.295970    0.305218    0.795477     0.005394
PD3800   PD        0.294453    0.337372    0.827921     0.005394
PD3801   PD        0.331610    0.304759    0.830426     0.005394
PD3802   PD        0.329360    0.337945    0.797189     0.005394
AU3803   AU        0.362744    0.305362    0.794377     0.007504
PD3804   PD        0.363791    0.338050    0.829051     0.005394
PD3805   PD        0.396563    0.304570    0.827021     0.005394
AU3806   AU        0.395766    0.338267    0.795566     0.007504
PD3807   PD        0.428200    0.301901    0.795045     0.005394
PD3808   PD        0.429577    0.335373    0.829997     0.005394
PD3809   PD        0.463560    0.300754    0.828077     0.005394
AU3810   AU        0.459346    0.337044    0.798488     0.007504
PD3811   PD        0.498278    0.303805    0.796594     0.005394
PD3812   PD        0.460782    0.345682    0.864102     0.005394
PD3813   PD        0.560045    0.299966    0.867300     0.005394
PD3814   PD        0.533031    0.337905    0.797713     0.005394
PD3815   PD        0.565701    0.304417    0.795368     0.005394
PD3816   PD        0.562411    0.337657    0.833539     0.005394
PD3817   PD        0.596620    0.339864    0.798970     0.005394
PD3818   PD        0.196127    0.409798    0.796023     0.005394
PD3819   PD        0.224055    0.371633    0.796063     0.005394
PD3820   PD        0.260848    0.368467    0.828498     0.005394
PD3821   PD        0.260982    0.406219    0.798036     0.005394
PD3822   PD        0.297090    0.375247    0.799122     0.005394
PD3823   PD        0.293037    0.411540    0.827083     0.005394
PD3824   PD        0.361085    0.372783    0.860409     0.005394
PD3825   PD        0.332230    0.409329    0.797695     0.005394
PD3826   PD        0.360762    0.372699    0.797044     0.005394
AU3827   AU        0.363619    0.411402    0.832308     0.007504
PD3828   PD        0.395171    0.377378    0.827126     0.005394
PD3829   PD        0.394215    0.409591    0.797160     0.005394
AU3830   AU        0.427641    0.375184    0.797536     0.007504
PD3831   PD        0.429038    0.410731    0.828264     0.005394
PD3832   PD        0.425944    0.380496    0.865299     0.005394
AU3833   AU        0.461945    0.409708    0.797805     0.007504
PD3834   PD        0.497861    0.379756    0.793578     0.005394
PD3835   PD        0.494886    0.413147    0.830200     0.005394
PD3836   PD        0.531347    0.376663    0.829433     0.005394
PD3837   PD        0.532032    0.411524    0.796790     0.005394
PD3838   PD        0.565917    0.375216    0.797005     0.005394
PD3839   PD        0.562821    0.412502    0.829428     0.005394
PD3840   PD        0.596629    0.372562    0.831578     0.005394
PD3841   PD        0.598891    0.415643    0.798397     0.005394
PD3842   PD        0.630198    0.381192    0.796831     0.005394
PD3843   PD        0.632231    0.375868    0.869765     0.005394
PD3844   PD        0.228649    0.452645    0.867937     0.005394
PD3845   PD        0.227396    0.402411    0.830894     0.005394
PD3846   PD        0.260372    0.448202    0.827109     0.005394
PD3847   PD        0.264528    0.485492    0.799110     0.005394
PD3848   PD        0.296005    0.445958    0.796363     0.005394
PD3849   PD        0.299030    0.480143    0.829771     0.005394
PD3850   PD        0.330425    0.443206    0.830410     0.005394
AU3851   AU        0.330880    0.480834    0.796753     0.007504
PD3852   PD        0.363325    0.444968    0.799196     0.005394
PD3853   PD        0.365338    0.481588    0.825591     0.005394
PD3854   PD        0.397006    0.445876    0.830036     0.005394
PD3855   PD        0.395910    0.485420    0.795654     0.005394
AU3856   AU        0.428630    0.446515    0.799693     0.007504
AU3857   AU        0.428944    0.481451    0.829799     0.007504
PD3858   PD        0.462172    0.446065    0.828344     0.005394
PD3859   PD        0.463706    0.481525    0.799121     0.005394
AU3860   AU        0.495826    0.445697    0.795275     0.007504
PD3861   PD        0.498519    0.482902    0.829737     0.005394
PD3862   PD        0.529752    0.488580    0.864310     0.005394
PD3863   PD        0.533080    0.484098    0.798931     0.005394
PD3864   PD        0.564971    0.448834    0.795625     0.005394
PD3865   PD        0.567170    0.487217    0.827815     0.005394
PD3866   PD        0.590579    0.438508    0.858814     0.005394
PD3867   PD        0.600122    0.483496    0.795407     0.005394
PD3868   PD        0.662441    0.448448    0.830605     0.005394
PD3869   PD        0.666687    0.513860    0.827563     0.005394
PD3870   PD        0.229660    0.522223    0.801006     0.005394
PD3871   PD        0.261008    0.516568    0.833180     0.005394
PD3872   PD        0.263789    0.553479    0.799513     0.005394
PD3873   PD        0.297513    0.519728    0.793398     0.005394
PD3874   PD        0.296535    0.552099    0.830787     0.005394
PD3875   PD        0.331502    0.514428    0.830959     0.005394
PD3876   PD        0.330551    0.556121    0.797042     0.005394
PD3877   PD        0.363440    0.518406    0.797484     0.005394
PD3878   PD        0.364004    0.554145    0.827761     0.005394
AU3879   AU        0.395893    0.516851    0.829102     0.007504
PD3880   PD        0.396907    0.553052    0.796624     0.005394
AU3881   AU        0.429495    0.517152    0.798687     0.007504
PD3882   PD        0.429323    0.552169    0.828252     0.005394
PD3883   PD        0.463106    0.518460    0.829359     0.005394
PD3884   PD        0.465150    0.557586    0.798396     0.005394
PD3885   PD        0.495677    0.516671    0.798016     0.005394
PD3886   PD        0.499383    0.553818    0.828432     0.005394
PD3887   PD        0.532854    0.520556    0.830243     0.005394
PD3888   PD        0.530369    0.551987    0.796929     0.005394
PD3889   PD        0.566104    0.519590    0.794427     0.005394
PD3890   PD        0.565406    0.555912    0.828291     0.005394
PD3891   PD        0.619116    0.490903    0.851116     0.005394
PD3892   PD        0.600236    0.554789    0.793477     0.005394
PD3893   PD        0.634409    0.515824    0.798131     0.005394
PD3894   PD        0.264321    0.621204    0.794067     0.005394
PD3895   PD        0.297553    0.589973    0.799174     0.005394
PD3896   PD        0.329988    0.589646    0.831407     0.005394
PD3897   PD        0.332548    0.627637    0.797318     0.005394
PD3898   PD        0.366523    0.591567    0.794855     0.005394
PD3899   PD        0.361889    0.626810    0.827494     0.005394
PD3900   PD        0.396664    0.589430    0.829917     0.005394
PD3901   PD        0.396311    0.628637    0.795346     0.005394
AU3902   AU        0.429257    0.592468    0.795942     0.007504
PD3903   PD        0.432375    0.628912    0.829475     0.005394
PD3904   PD        0.463049    0.591124    0.831919     0.005394
PD3905   PD        0.462992    0.624105    0.797955     0.005394
AU3906   AU        0.496453    0.590855    0.797207     0.007504
PD3907   PD        0.563204    0.630058    0.826017     0.005394
PD3908   PD        0.531881    0.589869    0.826367     0.005394
PD3909   PD        0.530298    0.623999    0.796102     0.005394
PD3910   PD        0.565179    0.587967    0.796011     0.005394
PD3911   PD        0.596765    0.620855    0.797253     0.005394
PD3912   PD        0.366786    0.661065    0.794936     0.005394
PD3913   PD        0.400275    0.695921    0.794940     0.005394
PD3914   PD        0.431667    0.658410    0.795760     0.005394
PD3915   PD        0.464871    0.699316    0.794472     0.005394
PD3916   PD        0.497739    0.662628    0.798900     0.005394
PD3917   PD        0.399347    0.409966    0.861298     0.005394
PD3918   PD        0.410965    0.382086    0.911055     0.005394
PD3919   PD        0.458378    0.413859    0.862767     0.005394
PD3920   PD        0.309667    0.477593    0.926224     0.005394
PD3921   PD        0.356438    0.531049    0.865673     0.005394
PD3922   PD        0.430191    0.446117    0.862264     0.005394
PD3923   PD        0.465576    0.481039    0.860595     0.005394
PD3924   PD        0.527962    0.444317    0.903042     0.005394
PD3925   PD        0.428549    0.516633    0.860487     0.005394
