data_00001
_audit_creation_method   'DISCUS'

_data_chemical_name_common 'Au.cell: Pearson85'

_cell_length_a             57.1942
_cell_length_b             57.1942
_cell_length_c             57.1942
_cell_angle_alpha     90.0000
_cell_angle_beta      90.0000
_cell_angle_gamma     90.0000

_symmetry_space_group_name_H-M   'P1              '

loop_
_atom_site_label
_atom_site_symbol
_atom_site_fract_x
_atom_site_fract_y
_atom_site_fract_z
_atom_site_u_iso_or_equiv
NI1   NI        0.445263    0.258562    0.058175     0.004307
NI2   NI        0.299195    0.313497    0.068234     0.004307
NI3   NI        0.341757    0.319649    0.077328     0.004307
NI4   NI        0.369861    0.327870    0.042695     0.004307
NI5   NI        0.414145    0.303198    0.048331     0.004307
NI6   NI        0.443808    0.361448    0.081113     0.004307
NI7   NI        0.479939    0.282263    0.040102     0.004307
NI8   NI        0.505030    0.340529    0.062379     0.004307
NI9   NI        0.559351    0.276501    0.075374     0.004307
NI10   NI        0.590707    0.351162    0.045671     0.004307
NI11   NI        0.290000    0.402759    0.073905     0.004307
NI12   NI        0.370772    0.359887    0.080310     0.004307
NI13   NI        0.373275    0.392561    0.040378     0.004307
NI14   NI        0.408116    0.359426    0.053687     0.004307
NI15   NI        0.408609    0.396751    0.008163     0.004307
NI16   NI        0.437778    0.397914    0.042678     0.004307
NI17   NI        0.398657    0.405821    0.075471     0.004307
NI18   NI        0.477281    0.373245    0.048224     0.004307
NI19   NI        0.452832    0.385557    0.000714     0.004307
NI20   NI        0.515683    0.393325    0.067513     0.004307
NI21   NI        0.547231    0.358672    0.062661     0.004307
NI22   NI        0.549177    0.392845    0.094973     0.004307
NI23   NI        0.240983    0.435963    0.082173     0.004307
NI24   NI        0.322870    0.458523    0.050898     0.004307
NI25   NI        0.327963    0.409758    0.042586     0.004307
NI26   NI        0.360925    0.436464    0.049227     0.004307
NI27   NI        0.365478    0.474383    0.067936     0.004307
NI28   NI        0.411399    0.432107    0.042013     0.004307
NI29   NI        0.467328    0.473945    0.004147     0.004307
NI30   NI        0.373779    0.434056    0.007707     0.004307
NI31   NI        0.435637    0.467332    0.061920     0.004307
NI32   NI        0.505910    0.433754    0.079333     0.004307
NI33   NI        0.467212    0.438459    0.045869     0.004307
NI34   NI        0.443152    0.429732    0.004378     0.004307
NI35   NI        0.522814    0.468227    0.064206     0.004307
NI36   NI        0.511426    0.362333    0.086529     0.004307
NI37   NI        0.580381    0.462859    0.063923     0.004307
NI38   NI        0.621164    0.432529    0.044923     0.004307
NI39   NI        0.284846    0.548134    0.076791     0.004307
NI40   NI        0.337264    0.506316    0.070392     0.004307
NI41   NI        0.374486    0.552097    0.065333     0.004307
NI42   NI        0.401392    0.507507    0.053319     0.004307
NI43   NI        0.430716    0.500411    0.017695     0.004307
NI44   NI        0.444851    0.552671    0.069699     0.004307
NI45   NI        0.442120    0.507864    0.093997     0.004307
NI46   NI        0.518736    0.542597    0.062726     0.004307
NI47   NI        0.551116    0.503348    0.068266     0.004307
NI48   NI        0.584050    0.531405    0.070203     0.004307
NI49   NI        0.323882    0.546355    0.076543     0.004307
NI50   NI        0.411126    0.580919    0.068834     0.004307
NI51   NI        0.403287    0.621118    0.043338     0.004307
NI52   NI        0.445732    0.586650    0.099979     0.004307
NI53   NI        0.533602    0.579053    0.037805     0.004307
NI54   NI        0.310045    0.173994    0.123011     0.004307
NI55   NI        0.362215    0.176879    0.124977     0.004307
NI56   NI        0.405485    0.165743    0.111527     0.004307
NI57   NI        0.441432    0.183460    0.127166     0.004307
NI58   NI        0.464538    0.171858    0.110289     0.004307
NI59   NI        0.511463    0.185433    0.110422     0.004307
NI60   NI        0.544719    0.180288    0.149795     0.004307
NI61   NI        0.232888    0.251084    0.128706     0.004307
NI62   NI        0.260132    0.214808    0.134109     0.004307
NI63   NI        0.297109    0.246795    0.122485     0.004307
NI64   NI        0.333982    0.217981    0.119905     0.004307
NI65   NI        0.330963    0.259377    0.088473     0.004307
NI66   NI        0.388547    0.193928    0.080527     0.004307
NI67   NI        0.368118    0.251214    0.121313     0.004307
NI68   NI        0.401663    0.214415    0.120875     0.004307
NI69   NI        0.402647    0.283509    0.069772     0.004307
NI70   NI        0.438494    0.211276    0.092449     0.004307
NI71   NI        0.445352    0.248272    0.127773     0.004307
NI72   NI        0.478474    0.211108    0.126010     0.004307
NI73   NI        0.476068    0.261575    0.089958     0.004307
NI74   NI        0.549048    0.160637    0.119035     0.004307
NI75   NI        0.509510    0.249090    0.118740     0.004307
NI76   NI        0.539528    0.216966    0.118483     0.004307
NI77   NI        0.607976    0.218817    0.110773     0.004307
NI78   NI        0.546528    0.254102    0.151276     0.004307
NI79   NI        0.632132    0.197960    0.147751     0.004307
NI80   NI        0.659628    0.271513    0.117279     0.004307
NI81   NI        0.201701    0.282993    0.127591     0.004307
NI82   NI        0.228384    0.321179    0.131849     0.004307
NI83   NI        0.261187    0.291799    0.134726     0.004307
NI84   NI        0.265024    0.319083    0.097010     0.004307
NI85   NI        0.292100    0.280692    0.099362     0.004307
NI86   NI        0.306704    0.321466    0.114172     0.004307
NI87   NI        0.335738    0.287465    0.120901     0.004307
NI88   NI        0.307263    0.321512    0.112727     0.004307
NI89   NI        0.365105    0.288168    0.094084     0.004307
AG90   AG        0.370086    0.326709    0.116327     0.008887
AG91   AG        0.404478    0.290805    0.116118     0.008887
NI92   NI        0.402609    0.329475    0.083541     0.004307
NI93   NI        0.443430    0.286724    0.094108     0.004307
AG94   AG        0.440648    0.323841    0.118900     0.008887
NI95   NI        0.480228    0.281767    0.125751     0.004307
NI96   NI        0.485778    0.318367    0.101778     0.004307
NI97   NI        0.513317    0.282594    0.080468     0.004307
NI98   NI        0.522528    0.320978    0.141160     0.004307
NI99   NI        0.546158    0.281807    0.142060     0.004307
NI100   NI        0.550281    0.326086    0.103130     0.004307
NI101   NI        0.588142    0.313037    0.078403     0.004307
NI102   NI        0.593989    0.324657    0.129143     0.004307
NI103   NI        0.618232    0.308137    0.119671     0.004307
NI104   NI        0.625620    0.333821    0.078293     0.004307
NI105   NI        0.657539    0.319396    0.128525     0.004307
NI106   NI        0.699619    0.301942    0.123865     0.004307
NI107   NI        0.148216    0.410751    0.129515     0.004307
NI108   NI        0.226869    0.386875    0.141368     0.004307
NI109   NI        0.239303    0.348075    0.088376     0.004307
NI110   NI        0.229113    0.391814    0.114206     0.004307
NI111   NI        0.260482    0.354799    0.131770     0.004307
NI112   NI        0.267855    0.395834    0.081806     0.004307
NI113   NI        0.286549    0.356229    0.093020     0.004307
AG114   AG        0.305750    0.392162    0.112856     0.008887
AG115   AG        0.338081    0.358785    0.114654     0.008887
NI116   NI        0.336065    0.393443    0.075923     0.004307
NI117   NI        0.376375    0.366676    0.085060     0.004307
AG118   AG        0.366372    0.394039    0.116456     0.008887
AG119   AG        0.404074    0.361509    0.117210     0.008887
NI120   NI        0.407635    0.395761    0.081651     0.004307
NI121   NI        0.442863    0.365810    0.095709     0.004307
AG122   AG        0.439501    0.403029    0.120891     0.008887
AG123   AG        0.476540    0.357389    0.119740     0.008887
NI124   NI        0.471105    0.401359    0.081977     0.004307
NI125   NI        0.476450    0.396419    0.096374     0.004307
AG126   AG        0.514624    0.396823    0.118165     0.008887
NI127   NI        0.551631    0.360882    0.128366     0.004307
NI128   NI        0.594371    0.393443    0.071654     0.004307
NI129   NI        0.584952    0.353777    0.090124     0.004307
AG130   AG        0.584888    0.392787    0.121277     0.008887
NI131   NI        0.625361    0.354817    0.118555     0.004307
NI132   NI        0.622452    0.425395    0.114444     0.004307
NI133   NI        0.664956    0.357232    0.080922     0.004307
NI134   NI        0.659988    0.391087    0.116351     0.004307
NI135   NI        0.693459    0.348505    0.111980     0.004307
NI136   NI        0.704615    0.394641    0.123727     0.004307
NI137   NI        0.179218    0.449246    0.123198     0.004307
NI138   NI        0.200277    0.421033    0.124506     0.004307
NI139   NI        0.256638    0.390501    0.102349     0.004307
NI140   NI        0.219733    0.472409    0.118769     0.004307
NI141   NI        0.278128    0.430249    0.110163     0.004307
NI142   NI        0.257618    0.471979    0.099467     0.004307
NI143   NI        0.306498    0.427453    0.078630     0.004307
NI144   NI        0.304111    0.466734    0.116595     0.004307
AG145   AG        0.334455    0.430128    0.114801     0.008887
NI146   NI        0.324353    0.469223    0.094813     0.004307
NI147   NI        0.398049    0.449129    0.078767     0.004307
AG148   AG        0.371098    0.468150    0.116143     0.008887
AG149   AG        0.405713    0.428739    0.117473     0.008887
NI150   NI        0.407075    0.469665    0.082148     0.004307
AG151   AG        0.440247    0.430451    0.083512     0.008887
AG152   AG        0.443613    0.470269    0.117529     0.008887
AG153   AG        0.478410    0.434918    0.118442     0.008887
AG154   AG        0.476532    0.467916    0.082035     0.008887
NI155   NI        0.517024    0.435018    0.095204     0.004307
AG156   AG        0.513718    0.469443    0.119549     0.008887
AG157   AG        0.549461    0.426154    0.122008     0.008887
AG158   AG        0.548968    0.467019    0.098383     0.008887
NI159   NI        0.581670    0.434231    0.096021     0.004307
NI160   NI        0.589269    0.469610    0.117432     0.004307
NI161   NI        0.628158    0.435637    0.128005     0.004307
NI162   NI        0.624551    0.470005    0.081197     0.004307
NI163   NI        0.650825    0.434351    0.079815     0.004307
NI164   NI        0.654246    0.469792    0.119732     0.004307
NI165   NI        0.675884    0.430261    0.125114     0.004307
NI166   NI        0.701711    0.467711    0.134657     0.004307
NI167   NI        0.156648    0.507470    0.162167     0.004307
NI168   NI        0.226322    0.508561    0.096498     0.004307
NI169   NI        0.225421    0.527711    0.141266     0.004307
NI170   NI        0.295378    0.507929    0.102962     0.004307
NI171   NI        0.261849    0.537382    0.077052     0.004307
NI172   NI        0.293678    0.501737    0.083587     0.004307
NI173   NI        0.301418    0.542814    0.115085     0.004307
AG174   AG        0.335810    0.506558    0.118687     0.008887
NI175   NI        0.326903    0.542815    0.094965     0.004307
NI176   NI        0.376334    0.506489    0.091999     0.004307
AG177   AG        0.370668    0.543051    0.115473     0.008887
AG178   AG        0.406492    0.507501    0.121341     0.008887
NI179   NI        0.405235    0.535557    0.089822     0.004307
NI180   NI        0.443640    0.505464    0.082355     0.004307
AG181   AG        0.443150    0.542488    0.120858     0.008887
AG182   AG        0.478922    0.504082    0.117364     0.008887
NI183   NI        0.488361    0.519068    0.073455     0.004307
NI184   NI        0.520247    0.504084    0.089044     0.004307
NI185   NI        0.513835    0.540790    0.114866     0.004307
AG186   AG        0.550746    0.506648    0.118415     0.008887
NI187   NI        0.582589    0.484138    0.076872     0.004307
NI188   NI        0.587652    0.497808    0.096619     0.004307
AG189   AG        0.586797    0.541312    0.119547     0.008887
NI190   NI        0.623725    0.505704    0.123567     0.004307
NI191   NI        0.633055    0.546301    0.110367     0.004307
NI192   NI        0.615412    0.498831    0.053177     0.004307
NI193   NI        0.660928    0.548118    0.154225     0.004307
NI194   NI        0.658643    0.474368    0.146547     0.004307
NI195   NI        0.197391    0.576964    0.127518     0.004307
NI196   NI        0.226687    0.612114    0.129990     0.004307
NI197   NI        0.241648    0.573918    0.147803     0.004307
NI198   NI        0.287749    0.577820    0.095812     0.004307
NI199   NI        0.301186    0.618472    0.113329     0.004307
NI200   NI        0.331475    0.576895    0.118978     0.004307
NI201   NI        0.329651    0.650043    0.117397     0.004307
NI202   NI        0.411825    0.577365    0.124007     0.004307
NI203   NI        0.373385    0.617573    0.116534     0.004307
NI204   NI        0.404220    0.577971    0.113749     0.004307
NI205   NI        0.410645    0.620065    0.092198     0.004307
NI206   NI        0.414850    0.542912    0.086268     0.004307
NI207   NI        0.442189    0.622220    0.129190     0.004307
NI208   NI        0.481976    0.577192    0.122464     0.004307
NI209   NI        0.482190    0.614001    0.103785     0.004307
NI210   NI        0.513275    0.582266    0.081733     0.004307
NI211   NI        0.516374    0.615436    0.134684     0.004307
NI212   NI        0.551298    0.577839    0.129467     0.004307
NI213   NI        0.529781    0.605374    0.116258     0.004307
NI214   NI        0.597745    0.579709    0.103547     0.004307
NI215   NI        0.582002    0.621346    0.122026     0.004307
NI216   NI        0.625467    0.556936    0.127474     0.004307
NI217   NI        0.657612    0.622780    0.137564     0.004307
NI218   NI        0.661697    0.533184    0.119739     0.004307
NI219   NI        0.258768    0.639652    0.121749     0.004307
NI220   NI        0.309003    0.694622    0.119703     0.004307
NI221   NI        0.338427    0.653540    0.123959     0.004307
NI222   NI        0.382507    0.649522    0.114104     0.004307
NI223   NI        0.363972    0.688908    0.114669     0.004307
NI224   NI        0.401236    0.656313    0.126279     0.004307
NI225   NI        0.417941    0.618307    0.112244     0.004307
NI226   NI        0.442618    0.692345    0.122713     0.004307
NI227   NI        0.476420    0.656393    0.127544     0.004307
NI228   NI        0.515700    0.649816    0.112842     0.004307
NI229   NI        0.513026    0.692344    0.120063     0.004307
NI230   NI        0.546320    0.650332    0.123438     0.004307
NI231   NI        0.583315    0.672895    0.126621     0.004307
NI232   NI        0.625627    0.651019    0.132733     0.004307
NI233   NI        0.402937    0.718506    0.113524     0.004307
NI234   NI        0.478870    0.728477    0.119531     0.004307
NI235   NI        0.289594    0.105056    0.219991     0.004307
NI236   NI        0.366135    0.119412    0.195621     0.004307
NI237   NI        0.431408    0.145448    0.149389     0.004307
NI238   NI        0.448505    0.136303    0.192657     0.004307
NI239   NI        0.470180    0.172000    0.167368     0.004307
NI240   NI        0.520246    0.104403    0.209669     0.004307
NI241   NI        0.558955    0.136170    0.205447     0.004307
NI242   NI        0.256112    0.186409    0.183065     0.004307
NI243   NI        0.253767    0.143736    0.187534     0.004307
NI244   NI        0.281248    0.176019    0.157233     0.004307
NI245   NI        0.289254    0.164208    0.160801     0.004307
NI246   NI        0.303540    0.188740    0.196254     0.004307
NI247   NI        0.333734    0.128749    0.224488     0.004307
NI248   NI        0.331678    0.186435    0.158326     0.004307
NI249   NI        0.401306    0.178720    0.154368     0.004307
NI250   NI        0.373271    0.188591    0.191530     0.004307
NI251   NI        0.398901    0.151898    0.187241     0.004307
NI252   NI        0.402940    0.192528    0.158823     0.004307
NI253   NI        0.433582    0.160772    0.149855     0.004307
AG254   AG        0.438126    0.178659    0.190011     0.008887
NI255   NI        0.537849    0.148029    0.191855     0.004307
NI256   NI        0.475662    0.182031    0.155755     0.004307
NI257   NI        0.518989    0.165175    0.150989     0.004307
AG258   AG        0.513282    0.181331    0.192061     0.008887
NI259   NI        0.548211    0.186011    0.230941     0.004307
NI260   NI        0.558739    0.198116    0.153006     0.004307
NI261   NI        0.566148    0.139572    0.156543     0.004307
NI262   NI        0.577541    0.176192    0.185255     0.004307
NI263   NI        0.595075    0.137696    0.189303     0.004307
NI264   NI        0.592497    0.215200    0.169649     0.004307
NI265   NI        0.654955    0.179091    0.189501     0.004307
NI266   NI        0.189312    0.258699    0.226921     0.004307
NI267   NI        0.185552    0.216019    0.198997     0.004307
NI268   NI        0.192874    0.260275    0.163276     0.004307
NI269   NI        0.231024    0.215136    0.168150     0.004307
NI270   NI        0.227279    0.252969    0.195873     0.004307
NI271   NI        0.266681    0.224551    0.195354     0.004307
AG272   AG        0.266480    0.252955    0.156640     0.008887
NI273   NI        0.300104    0.215265    0.153993     0.004307
AG274   AG        0.302608    0.250528    0.188568     0.008887
AG275   AG        0.336999    0.216048    0.192321     0.008887
AG276   AG        0.332089    0.254044    0.153762     0.008887
AG277   AG        0.366764    0.213053    0.153565     0.008887
AG278   AG        0.370723    0.253083    0.190776     0.008887
AG279   AG        0.403287    0.214613    0.189984     0.008887
AG280   AG        0.405858    0.247829    0.154314     0.008887
AG281   AG        0.440867    0.212436    0.157436     0.008887
AG282   AG        0.440751    0.250511    0.189451     0.008887
AG283   AG        0.477304    0.214027    0.190678     0.008887
AG284   AG        0.477206    0.249430    0.157632     0.008887
AG285   AG        0.516863    0.216887    0.156802     0.008887
AG286   AG        0.513363    0.250065    0.189536     0.008887
AG287   AG        0.549885    0.212371    0.191476     0.008887
NI288   NI        0.553375    0.242146    0.162083     0.004307
NI289   NI        0.626928    0.242403    0.182673     0.004307
NI290   NI        0.585333    0.252883    0.192391     0.004307
NI291   NI        0.616039    0.249787    0.226561     0.004307
NI292   NI        0.627429    0.272234    0.147434     0.004307
NI293   NI        0.656268    0.212356    0.178337     0.004307
AG294   AG        0.661423    0.256843    0.198643     0.008887
NI295   NI        0.681177    0.219139    0.216398     0.004307
NI296   NI        0.693724    0.227201    0.199158     0.004307
NI297   NI        0.687298    0.260550    0.231895     0.004307
NI298   NI        0.114728    0.295553    0.189743     0.004307
NI299   NI        0.156611    0.289634    0.173422     0.004307
NI300   NI        0.147876    0.327872    0.186729     0.004307
NI301   NI        0.196914    0.288184    0.199865     0.004307
NI302   NI        0.195121    0.321391    0.168350     0.004307
NI303   NI        0.229176    0.287592    0.167628     0.004307
AG304   AG        0.232990    0.318899    0.199025     0.008887
AG305   AG        0.265695    0.284953    0.191763     0.008887
NI306   NI        0.260020    0.321028    0.166395     0.004307
AG307   AG        0.299520    0.288110    0.152957     0.008887
AG308   AG        0.300119    0.323277    0.191929     0.008887
AG309   AG        0.332591    0.286234    0.186540     0.008887
AG310   AG        0.334305    0.323895    0.150635     0.008887
AG311   AG        0.372571    0.287057    0.149084     0.008887
AG312   AG        0.369346    0.322820    0.186614     0.008887
AG313   AG        0.403525    0.286893    0.186781     0.008887
AG314   AG        0.406570    0.322577    0.149056     0.008887
AG315   AG        0.442336    0.286582    0.151294     0.008887
AG316   AG        0.441804    0.322478    0.185934     0.008887
AG317   AG        0.477761    0.286824    0.190532     0.008887
AG318   AG        0.477660    0.322202    0.152255     0.008887
AG319   AG        0.512548    0.286027    0.153858     0.008887
AG320   AG        0.512132    0.323508    0.191234     0.008887
AG321   AG        0.550568    0.288596    0.186938     0.008887
AG322   AG        0.549809    0.322488    0.153364     0.008887
NI323   NI        0.584328    0.288307    0.160813     0.004307
AG324   AG        0.585350    0.323097    0.190268     0.008887
AG325   AG        0.628291    0.288705    0.193274     0.008887
AG326   AG        0.623425    0.324107    0.159571     0.008887
NI327   NI        0.667542    0.290207    0.159855     0.004307
NI328   NI        0.661792    0.323687    0.189546     0.004307
NI329   NI        0.690028    0.291064    0.196105     0.004307
NI330   NI        0.660540    0.324872    0.201181     0.004307
NI331   NI        0.739121    0.296552    0.154407     0.004307
NI332   NI        0.698334    0.327498    0.158113     0.004307
NI333   NI        0.769052    0.294466    0.193176     0.004307
NI334   NI        0.123173    0.369862    0.198664     0.004307
NI335   NI        0.119405    0.400433    0.167154     0.004307
NI336   NI        0.150320    0.368973    0.155942     0.004307
NI337   NI        0.156224    0.400719    0.195813     0.004307
NI338   NI        0.222647    0.395100    0.190743     0.004307
NI339   NI        0.185923    0.398119    0.164223     0.004307
NI340   NI        0.226755    0.357049    0.175513     0.004307
NI341   NI        0.232463    0.399089    0.198449     0.004307
NI342   NI        0.261945    0.351881    0.198633     0.004307
NI343   NI        0.273557    0.394181    0.147244     0.004307
NI344   NI        0.283714    0.360941    0.178657     0.004307
AG345   AG        0.302517    0.401356    0.185614     0.008887
AG346   AG        0.333881    0.359603    0.187021     0.008887
AG347   AG        0.335033    0.396778    0.148740     0.008887
AG348   AG        0.370412    0.360639    0.152826     0.008887
AG349   AG        0.368547    0.399003    0.184435     0.008887
NI350   NI        0.441827    0.398290    0.197431     0.004307
AG351   AG        0.407862    0.393971    0.152115     0.008887
AG352   AG        0.442643    0.359943    0.151415     0.008887
AG353   AG        0.446473    0.394585    0.185217     0.008887
AG354   AG        0.479325    0.360237    0.189119     0.008887
AG355   AG        0.476346    0.396055    0.152333     0.008887
AG356   AG        0.514542    0.362162    0.152293     0.008887
AG357   AG        0.515619    0.394234    0.185763     0.008887
AG358   AG        0.550678    0.358426    0.186754     0.008887
AG359   AG        0.549779    0.395653    0.154229     0.008887
AG360   AG        0.587735    0.358964    0.156058     0.008887
AG361   AG        0.583903    0.393965    0.190332     0.008887
AG362   AG        0.625015    0.360196    0.191156     0.008887
NI363   NI        0.622712    0.393132    0.153290     0.004307
NI364   NI        0.661991    0.359934    0.154747     0.004307
AG365   AG        0.657568    0.397629    0.193189     0.008887
AG366   AG        0.693225    0.358460    0.195721     0.008887
NI367   NI        0.688568    0.403964    0.165453     0.004307
NI368   NI        0.719582    0.365893    0.155646     0.004307
NI369   NI        0.718789    0.395474    0.187490     0.004307
NI370   NI        0.727682    0.326811    0.190974     0.004307
NI371   NI        0.737390    0.361687    0.109924     0.004307
NI372   NI        0.118088    0.417136    0.216953     0.004307
NI373   NI        0.125564    0.449596    0.160390     0.004307
NI374   NI        0.157961    0.432205    0.165422     0.004307
NI375   NI        0.158915    0.462807    0.195795     0.004307
AG376   AG        0.192264    0.430513    0.195519     0.008887
NI377   NI        0.185264    0.469144    0.163196     0.004307
NI378   NI        0.231966    0.413941    0.160144     0.004307
NI379   NI        0.228875    0.469920    0.193190     0.004307
AG380   AG        0.263988    0.428292    0.187896     0.008887
NI381   NI        0.265017    0.468591    0.148961     0.004307
AG382   AG        0.300524    0.431226    0.151413     0.008887
AG383   AG        0.297997    0.466059    0.188139     0.008887
AG384   AG        0.334648    0.430683    0.186350     0.008887
AG385   AG        0.334973    0.469029    0.149261     0.008887
AG386   AG        0.370022    0.431297    0.149485     0.008887
AG387   AG        0.368877    0.468079    0.186860     0.008887
AG388   AG        0.403768    0.430926    0.187446     0.008887
AG389   AG        0.405730    0.466400    0.150448     0.008887
AG390   AG        0.442570    0.432361    0.153940     0.008887
AG391   AG        0.442363    0.468524    0.190089     0.008887
AG392   AG        0.478610    0.431897    0.188275     0.008887
AG393   AG        0.478705    0.468825    0.153592     0.008887
AG394   AG        0.515613    0.430980    0.151711     0.008887
AG395   AG        0.513800    0.470160    0.189250     0.008887
AG396   AG        0.551711    0.433799    0.189412     0.008887
AG397   AG        0.552570    0.469182    0.151537     0.008887
AG398   AG        0.588162    0.431595    0.154132     0.008887
AG399   AG        0.585262    0.468737    0.188684     0.008887
AG400   AG        0.620593    0.433050    0.191213     0.008887
AG401   AG        0.618179    0.466207    0.154995     0.008887
NI402   NI        0.655304    0.435524    0.165269     0.004307
AG403   AG        0.650251    0.466619    0.196587     0.008887
AG404   AG        0.688646    0.436154    0.202355     0.008887
NI405   NI        0.689674    0.474549    0.176036     0.004307
NI406   NI        0.710618    0.433097    0.162253     0.004307
NI407   NI        0.719834    0.466400    0.188020     0.004307
NI408   NI        0.744885    0.429218    0.196075     0.004307
NI409   NI        0.773050    0.460883    0.189119     0.004307
NI410   NI        0.161267    0.494622    0.224596     0.004307
NI411   NI        0.156196    0.541909    0.195362     0.004307
NI412   NI        0.192540    0.532273    0.234335     0.004307
NI413   NI        0.188252    0.503341    0.190823     0.004307
NI414   NI        0.190953    0.544782    0.161273     0.004307
NI415   NI        0.258173    0.497003    0.139783     0.004307
NI416   NI        0.225227    0.541290    0.191760     0.004307
NI417   NI        0.256271    0.510655    0.191102     0.004307
NI418   NI        0.260284    0.535695    0.170254     0.004307
AG419   AG        0.298280    0.506556    0.150766     0.008887
AG420   AG        0.300464    0.542402    0.189146     0.008887
AG421   AG        0.335107    0.502906    0.186864     0.008887
AG422   AG        0.336099    0.541720    0.151647     0.008887
AG423   AG        0.371984    0.503164    0.150458     0.008887
AG424   AG        0.371535    0.541835    0.185945     0.008887
AG425   AG        0.406344    0.505392    0.185576     0.008887
AG426   AG        0.403390    0.542459    0.153484     0.008887
AG427   AG        0.441545    0.505031    0.155736     0.008887
AG428   AG        0.443379    0.542197    0.188077     0.008887
AG429   AG        0.476988    0.503967    0.189248     0.008887
AG430   AG        0.476312    0.541303    0.151811     0.008887
AG431   AG        0.514357    0.505432    0.153800     0.008887
AG432   AG        0.512664    0.541162    0.187892     0.008887
AG433   AG        0.552774    0.503259    0.188521     0.008887
AG434   AG        0.551116    0.539120    0.150750     0.008887
AG435   AG        0.585695    0.505136    0.151896     0.008887
AG436   AG        0.587137    0.542378    0.186428     0.008887
AG437   AG        0.619323    0.507140    0.192249     0.008887
NI438   NI        0.620570    0.538079    0.154904     0.004307
NI439   NI        0.633890    0.509752    0.144335     0.004307
NI440   NI        0.652936    0.545342    0.200222     0.004307
NI441   NI        0.661068    0.508495    0.183131     0.004307
NI442   NI        0.695719    0.544600    0.179367     0.004307
NI443   NI        0.725970    0.509076    0.167543     0.004307
NI444   NI        0.730710    0.538938    0.208233     0.004307
NI445   NI        0.757955    0.500420    0.201081     0.004307
NI446   NI        0.109675    0.590731    0.255177     0.004307
NI447   NI        0.165593    0.580184    0.156037     0.004307
NI448   NI        0.159030    0.609131    0.200031     0.004307
NI449   NI        0.186868    0.574860    0.196724     0.004307
NI450   NI        0.197648    0.607849    0.162964     0.004307
NI451   NI        0.226897    0.573263    0.162099     0.004307
NI452   NI        0.258868    0.605899    0.233481     0.004307
AG453   AG        0.263446    0.577659    0.187885     0.008887
NI454   NI        0.262034    0.611960    0.157250     0.004307
NI455   NI        0.298538    0.581744    0.153996     0.004307
AG456   AG        0.297076    0.614150    0.187813     0.008887
AG457   AG        0.334733    0.578935    0.187211     0.008887
AG458   AG        0.334423    0.615439    0.155960     0.008887
AG459   AG        0.369791    0.581201    0.152691     0.008887
AG460   AG        0.369255    0.615855    0.188462     0.008887
AG461   AG        0.406411    0.579374    0.183739     0.008887
AG462   AG        0.404726    0.616501    0.153869     0.008887
AG463   AG        0.443263    0.578624    0.154873     0.008887
AG464   AG        0.441952    0.615719    0.190716     0.008887
AG465   AG        0.476136    0.577874    0.188529     0.008887
AG466   AG        0.476508    0.612877    0.153304     0.008887
AG467   AG        0.513552    0.577476    0.154705     0.008887
AG468   AG        0.515230    0.611593    0.185241     0.008887
AG469   AG        0.549976    0.576661    0.186542     0.008887
AG470   AG        0.551818    0.613900    0.157682     0.008887
AG471   AG        0.587727    0.579293    0.154311     0.008887
AG472   AG        0.584717    0.609372    0.192128     0.008887
AG473   AG        0.619683    0.578646    0.190242     0.008887
NI474   NI        0.614406    0.614726    0.154607     0.004307
NI475   NI        0.669671    0.584802    0.185006     0.004307
NI476   NI        0.630260    0.622171    0.182932     0.004307
NI477   NI        0.697123    0.574713    0.219547     0.004307
NI478   NI        0.717004    0.589585    0.183934     0.004307
NI479   NI        0.741149    0.549511    0.162785     0.004307
NI480   NI        0.737327    0.583910    0.187789     0.004307
NI481   NI        0.757172    0.577468    0.198233     0.004307
NI482   NI        0.198874    0.637688    0.197787     0.004307
NI483   NI        0.227670    0.641101    0.160469     0.004307
NI484   NI        0.228739    0.677162    0.193559     0.004307
NI485   NI        0.264189    0.647466    0.188225     0.004307
NI486   NI        0.254963    0.674909    0.149783     0.004307
NI487   NI        0.299501    0.647618    0.149404     0.004307
NI488   NI        0.297511    0.688817    0.189963     0.004307
AG489   AG        0.334525    0.650364    0.185742     0.008887
NI490   NI        0.334697    0.687240    0.153098     0.004307
AG491   AG        0.369593    0.650407    0.155716     0.008887
AG492   AG        0.368272    0.686462    0.188418     0.008887
AG493   AG        0.402147    0.650342    0.187639     0.008887
NI494   NI        0.405989    0.684857    0.153771     0.004307
NI495   NI        0.439288    0.647435    0.153389     0.004307
NI496   NI        0.442228    0.689152    0.190596     0.004307
NI497   NI        0.513055    0.621157    0.190337     0.004307
NI498   NI        0.477285    0.691612    0.152881     0.004307
NI499   NI        0.513393    0.652103    0.154425     0.004307
AG500   AG        0.513187    0.688963    0.188728     0.008887
AG501   AG        0.549334    0.648154    0.189566     0.008887
NI502   NI        0.549313    0.680938    0.154520     0.004307
NI503   NI        0.586721    0.646183    0.165982     0.004307
NI504   NI        0.583021    0.684820    0.190763     0.004307
NI505   NI        0.591719    0.653502    0.165645     0.004307
NI506   NI        0.624795    0.680194    0.168132     0.004307
NI507   NI        0.619784    0.615582    0.164130     0.004307
NI508   NI        0.615276    0.648228    0.199205     0.004307
NI509   NI        0.660277    0.673616    0.205265     0.004307
NI510   NI        0.256759    0.706967    0.179857     0.004307
NI511   NI        0.290615    0.722869    0.154125     0.004307
NI512   NI        0.325064    0.760268    0.236467     0.004307
NI513   NI        0.336813    0.719735    0.183031     0.004307
NI514   NI        0.369303    0.720117    0.148910     0.004307
NI515   NI        0.374729    0.749526    0.181514     0.004307
NI516   NI        0.409710    0.719753    0.184840     0.004307
NI517   NI        0.406475    0.754711    0.147754     0.004307
NI518   NI        0.441231    0.723284    0.153696     0.004307
NI519   NI        0.442016    0.759017    0.184114     0.004307
AG520   AG        0.478124    0.722366    0.189061     0.008887
NI521   NI        0.480540    0.753115    0.156151     0.004307
NI522   NI        0.512811    0.721171    0.153717     0.004307
NI523   NI        0.517618    0.756188    0.185254     0.004307
NI524   NI        0.548943    0.720797    0.189271     0.004307
NI525   NI        0.607082    0.727400    0.188516     0.004307
NI526   NI        0.576332    0.762840    0.190546     0.004307
NI527   NI        0.633020    0.733371    0.222675     0.004307
NI528   NI        0.438825    0.071478    0.295038     0.004307
NI529   NI        0.265903    0.112086    0.252604     0.004307
NI530   NI        0.251183    0.126496    0.229334     0.004307
NI531   NI        0.307944    0.113233    0.260455     0.004307
NI532   NI        0.340421    0.099064    0.225043     0.004307
NI533   NI        0.321766    0.100930    0.257224     0.004307
NI534   NI        0.387398    0.078383    0.230202     0.004307
NI535   NI        0.369058    0.116202    0.263444     0.004307
NI536   NI        0.412086    0.094593    0.262630     0.004307
NI537   NI        0.407610    0.124326    0.227953     0.004307
NI538   NI        0.434868    0.087293    0.225648     0.004307
NI539   NI        0.455958    0.106449    0.270387     0.004307
NI540   NI        0.477949    0.071452    0.259078     0.004307
NI541   NI        0.484056    0.111642    0.235152     0.004307
NI542   NI        0.504539    0.063448    0.218992     0.004307
NI543   NI        0.519900    0.103454    0.261311     0.004307
NI544   NI        0.552809    0.067436    0.260932     0.004307
NI545   NI        0.555438    0.122686    0.221972     0.004307
NI546   NI        0.591479    0.085644    0.296516     0.004307
NI547   NI        0.601841    0.099798    0.222462     0.004307
NI548   NI        0.671965    0.141739    0.253229     0.004307
NI549   NI        0.160363    0.188371    0.270315     0.004307
NI550   NI        0.226303    0.129536    0.259534     0.004307
NI551   NI        0.179980    0.179043    0.226911     0.004307
NI552   NI        0.224898    0.167576    0.221364     0.004307
NI553   NI        0.223910    0.178656    0.264213     0.004307
NI554   NI        0.262140    0.152697    0.270819     0.004307
NI555   NI        0.267344    0.190816    0.229190     0.004307
NI556   NI        0.297240    0.143369    0.249096     0.004307
NI557   NI        0.301554    0.184347    0.263256     0.004307
NI558   NI        0.337700    0.143522    0.264581     0.004307
AG559   AG        0.335949    0.177876    0.228546     0.008887
NI560   NI        0.371120    0.148147    0.232588     0.004307
AG561   AG        0.372754    0.177498    0.266292     0.008887
AG562   AG        0.405696    0.143132    0.268327     0.008887
AG563   AG        0.406090    0.178255    0.228748     0.008887
NI564   NI        0.480723    0.182829    0.228142     0.004307
NI565   NI        0.442823    0.181442    0.263373     0.004307
NI566   NI        0.480286    0.145835    0.265335     0.004307
NI567   NI        0.435082    0.174642    0.260057     0.004307
AG568   AG        0.515909    0.145486    0.230132     0.008887
AG569   AG        0.515025    0.180325    0.262393     0.008887
AG570   AG        0.551517    0.144276    0.262050     0.008887
AG571   AG        0.547539    0.176291    0.223158     0.008887
NI572   NI        0.591850    0.149837    0.236128     0.004307
AG573   AG        0.582979    0.182333    0.262345     0.008887
NI574   NI        0.626492    0.149089    0.265762     0.004307
NI575   NI        0.626531    0.179898    0.230627     0.004307
NI576   NI        0.640477    0.136763    0.220338     0.004307
NI577   NI        0.663486    0.185389    0.271505     0.004307
NI578   NI        0.684102    0.145643    0.255079     0.004307
NI579   NI        0.672681    0.171951    0.219016     0.004307
NI580   NI        0.710506    0.183166    0.256773     0.004307
NI581   NI        0.119680    0.250639    0.292885     0.004307
NI582   NI        0.119956    0.274174    0.227155     0.004307
NI583   NI        0.162460    0.254901    0.193837     0.004307
NI584   NI        0.154747    0.256537    0.258670     0.004307
NI585   NI        0.190300    0.216683    0.259193     0.004307
NI586   NI        0.192917    0.247929    0.229129     0.004307
NI587   NI        0.223195    0.216393    0.227684     0.004307
AG588   AG        0.226030    0.252283    0.261873     0.008887
NI589   NI        0.257291    0.216763    0.261215     0.004307
AG590   AG        0.261265    0.250353    0.230581     0.008887
NI591   NI        0.299333    0.217379    0.229099     0.004307
NI592   NI        0.335285    0.221424    0.270075     0.004307
AG593   AG        0.337280    0.211206    0.263778     0.008887
AG594   AG        0.336841    0.249691    0.226524     0.008887
AG595   AG        0.370542    0.212664    0.227155     0.008887
AG596   AG        0.369892    0.248579    0.262344     0.008887
AG597   AG        0.405172    0.212372    0.265300     0.008887
AG598   AG        0.405472    0.250634    0.224523     0.008887
AG599   AG        0.439996    0.215054    0.223527     0.008887
NI600   NI        0.472001    0.249589    0.295267     0.004307
AG601   AG        0.477301    0.212859    0.265359     0.008887
AG602   AG        0.478284    0.249328    0.224809     0.008887
AG603   AG        0.513235    0.215511    0.225544     0.008887
AG604   AG        0.513303    0.247040    0.262210     0.008887
AG605   AG        0.550222    0.216289    0.261854     0.008887
AG606   AG        0.548260    0.250143    0.225791     0.008887
NI607   NI        0.590098    0.221802    0.291631     0.004307
AG608   AG        0.586896    0.250981    0.261400     0.008887
AG609   AG        0.621759    0.216023    0.261584     0.008887
AG610   AG        0.625749    0.253884    0.229262     0.008887
NI611   NI        0.654874    0.219012    0.227366     0.004307
AG612   AG        0.657092    0.254110    0.261916     0.008887
NI613   NI        0.687557    0.224745    0.261660     0.004307
NI614   NI        0.698677    0.256237    0.225480     0.004307
NI615   NI        0.722980    0.219871    0.235767     0.004307
AG616   AG        0.724619    0.259437    0.260356     0.008887
NI617   NI        0.768937    0.231400    0.252144     0.004307
NI618   NI        0.754070    0.255409    0.219412     0.004307
NI619   NI        0.112614    0.333523    0.255802     0.004307
NI620   NI        0.104652    0.287392    0.269859     0.004307
NI621   NI        0.124486    0.329138    0.224087     0.004307
NI622   NI        0.158729    0.289159    0.217874     0.004307
NI623   NI        0.160536    0.328978    0.255267     0.004307
AG624   AG        0.189423    0.285049    0.259440     0.008887
NI625   NI        0.193245    0.326068    0.228057     0.004307
AG626   AG        0.226710    0.284511    0.227641     0.008887
AG627   AG        0.227112    0.322173    0.262091     0.008887
AG628   AG        0.263496    0.285808    0.262218     0.008887
AG629   AG        0.264285    0.321197    0.229043     0.008887
AG630   AG        0.298488    0.285241    0.222649     0.008887
AG631   AG        0.298356    0.320686    0.263828     0.008887
AG632   AG        0.334771    0.289397    0.262347     0.008887
AG633   AG        0.334756    0.322412    0.224034     0.008887
AG634   AG        0.368632    0.288013    0.224568     0.008887
AG635   AG        0.369882    0.321191    0.263157     0.008887
AG636   AG        0.406129    0.287073    0.263357     0.008887
AG637   AG        0.406637    0.322569    0.226424     0.008887
AG638   AG        0.442017    0.284719    0.224103     0.008887
AG639   AG        0.443316    0.319790    0.264454     0.008887
AG640   AG        0.478282    0.285566    0.263336     0.008887
AG641   AG        0.478779    0.322225    0.226994     0.008887
AG642   AG        0.512685    0.285863    0.226596     0.008887
AG643   AG        0.516445    0.321712    0.262591     0.008887
AG644   AG        0.548832    0.286316    0.261888     0.008887
AG645   AG        0.550785    0.320093    0.224564     0.008887
AG646   AG        0.587276    0.285503    0.225176     0.008887
AG647   AG        0.588709    0.321256    0.262060     0.008887
AG648   AG        0.622052    0.286690    0.263704     0.008887
AG649   AG        0.623474    0.325592    0.226815     0.008887
AG650   AG        0.660078    0.289107    0.229441     0.008887
AG651   AG        0.660724    0.322819    0.262203     0.008887
AG652   AG        0.694235    0.289214    0.263350     0.008887
AG653   AG        0.696678    0.325891    0.227496     0.008887
NI654   NI        0.726169    0.293574    0.224458     0.004307
AG655   AG        0.730483    0.325624    0.264209     0.008887
NI656   NI        0.763007    0.290162    0.260425     0.004307
NI657   NI        0.747401    0.313766    0.226057     0.004307
NI658   NI        0.777605    0.330693    0.256825     0.004307
NI659   NI        0.084060    0.354963    0.225550     0.004307
NI660   NI        0.114684    0.409180    0.306372     0.004307
NI661   NI        0.110735    0.352557    0.261131     0.004307
NI662   NI        0.149785    0.387762    0.287102     0.004307
NI663   NI        0.157202    0.357324    0.222836     0.004307
NI664   NI        0.159825    0.394535    0.256932     0.004307
AG665   AG        0.194108    0.358732    0.260445     0.008887
AG666   AG        0.190876    0.391517    0.226015     0.008887
AG667   AG        0.223823    0.356794    0.223903     0.008887
AG668   AG        0.227059    0.392193    0.258112     0.008887
AG669   AG        0.259600    0.359632    0.261600     0.008887
AG670   AG        0.262888    0.395332    0.223805     0.008887
AG671   AG        0.300374    0.358151    0.228343     0.008887
AG672   AG        0.299198    0.396124    0.261044     0.008887
AG673   AG        0.334592    0.357275    0.259719     0.008887
AG674   AG        0.333078    0.395405    0.224697     0.008887
AG675   AG        0.367992    0.358384    0.224458     0.008887
AG676   AG        0.368316    0.397465    0.258934     0.008887
AG677   AG        0.405852    0.358406    0.259403     0.008887
NI678   NI        0.418804    0.439975    0.189584     0.004307
AG679   AG        0.442341    0.359263    0.225527     0.008887
AG680   AG        0.445557    0.394451    0.261708     0.008887
NI681   NI        0.449101    0.353080    0.318913     0.004307
AG682   AG        0.478361    0.395770    0.222446     0.008887
AG683   AG        0.514129    0.361802    0.223682     0.008887
AG684   AG        0.514636    0.398530    0.259921     0.008887
AG685   AG        0.550603    0.360324    0.260917     0.008887
AG686   AG        0.551855    0.395092    0.225024     0.008887
AG687   AG        0.586509    0.357923    0.224576     0.008887
AG688   AG        0.588261    0.396888    0.259062     0.008887
AG689   AG        0.621076    0.360034    0.262074     0.008887
AG690   AG        0.621987    0.397646    0.227615     0.008887
AG691   AG        0.657652    0.360428    0.226330     0.008887
AG692   AG        0.655300    0.391308    0.262753     0.008887
AG693   AG        0.698006    0.360199    0.265335     0.008887
AG694   AG        0.697384    0.395834    0.227586     0.008887
AG695   AG        0.728924    0.359863    0.226087     0.008887
NI696   NI        0.726896    0.397192    0.266405     0.004307
NI697   NI        0.761713    0.367283    0.260048     0.004307
NI698   NI        0.746937    0.398805    0.228537     0.004307
NI699   NI        0.770131    0.346910    0.207440     0.004307
NI700   NI        0.762944    0.396779    0.299317     0.004307
NI701   NI        0.062303    0.433799    0.259461     0.004307
NI702   NI        0.121605    0.436557    0.189578     0.004307
NI703   NI        0.091910    0.471170    0.260316     0.004307
NI704   NI        0.125344    0.434688    0.261377     0.004307
NI705   NI        0.129336    0.462880    0.227388     0.004307
AG706   AG        0.159329    0.430256    0.226139     0.008887
AG707   AG        0.162835    0.466376    0.258836     0.008887
AG708   AG        0.190839    0.430857    0.256631     0.008887
AG709   AG        0.194754    0.467524    0.226426     0.008887
AG710   AG        0.227298    0.433669    0.224683     0.008887
AG711   AG        0.226821    0.471150    0.258889     0.008887
AG712   AG        0.258280    0.432093    0.259780     0.008887
AG713   AG        0.263844    0.466947    0.224425     0.008887
AG714   AG        0.297388    0.429249    0.222407     0.008887
AG715   AG        0.296995    0.468695    0.261027     0.008887
AG716   AG        0.334400    0.432434    0.260010     0.008887
AG717   AG        0.333170    0.466372    0.222952     0.008887
AG718   AG        0.370089    0.433392    0.224550     0.008887
AG719   AG        0.370482    0.468610    0.259757     0.008887
AG720   AG        0.405918    0.432928    0.259876     0.008887
AG721   AG        0.406473    0.468658    0.224039     0.008887
AG722   AG        0.444683    0.433986    0.225950     0.008887
AG723   AG        0.440286    0.467748    0.260829     0.008887
AG724   AG        0.477768    0.432226    0.262408     0.008887
AG725   AG        0.477775    0.470761    0.226349     0.008887
AG726   AG        0.514219    0.430836    0.222606     0.008887
AG727   AG        0.512784    0.470025    0.260404     0.008887
AG728   AG        0.552822    0.433324    0.260680     0.008887
AG729   AG        0.550382    0.468621    0.225162     0.008887
AG730   AG        0.587848    0.430958    0.227119     0.008887
AG731   AG        0.586130    0.469059    0.260459     0.008887
AG732   AG        0.622250    0.432532    0.263833     0.008887
AG733   AG        0.620270    0.469151    0.228224     0.008887
AG734   AG        0.655962    0.429899    0.228352     0.008887
AG735   AG        0.658301    0.469623    0.263472     0.008887
NI736   NI        0.669050    0.430490    0.241128     0.004307
AG737   AG        0.688867    0.471967    0.228430     0.008887
NI738   NI        0.717102    0.436097    0.234720     0.004307
AG739   AG        0.729208    0.473792    0.269397     0.008887
NI740   NI        0.752373    0.435511    0.261621     0.004307
NI741   NI        0.752375    0.466947    0.227559     0.004307
NI742   NI        0.785071    0.429906    0.225372     0.004307
NI743   NI        0.787475    0.464140    0.262570     0.004307
NI744   NI        0.822144    0.437773    0.248361     0.004307
NI745   NI        0.113525    0.506174    0.223332     0.004307
NI746   NI        0.090935    0.530995    0.260761     0.004307
NI747   NI        0.132592    0.502521    0.263205     0.004307
NI748   NI        0.119368    0.547498    0.228030     0.004307
NI749   NI        0.156345    0.509561    0.229006     0.004307
AG750   AG        0.157671    0.537935    0.261540     0.008887
AG751   AG        0.193963    0.506145    0.256864     0.008887
AG752   AG        0.192184    0.542386    0.224571     0.008887
AG753   AG        0.225278    0.506136    0.225815     0.008887
AG754   AG        0.225510    0.540540    0.264209     0.008887
AG755   AG        0.261499    0.503637    0.262016     0.008887
NI756   NI        0.262386    0.543504    0.225643     0.004307
AG757   AG        0.299473    0.504421    0.224058     0.008887
AG758   AG        0.299582    0.542280    0.259290     0.008887
AG759   AG        0.333272    0.504784    0.257832     0.008887
AG760   AG        0.333638    0.541970    0.224953     0.008887
AG761   AG        0.368814    0.506152    0.223678     0.008887
AG762   AG        0.369750    0.544373    0.259365     0.008887
AG763   AG        0.404630    0.504388    0.262424     0.008887
NI764   NI        0.437257    0.545452    0.256873     0.004307
AG765   AG        0.441574    0.505120    0.223894     0.008887
AG766   AG        0.444428    0.542119    0.263335     0.008887
AG767   AG        0.477575    0.506493    0.261666     0.008887
AG768   AG        0.477955    0.540202    0.223808     0.008887
AG769   AG        0.513917    0.506220    0.222894     0.008887
AG770   AG        0.512892    0.542776    0.260790     0.008887
AG771   AG        0.548553    0.504804    0.261684     0.008887
AG772   AG        0.549552    0.543174    0.223619     0.008887
AG773   AG        0.583624    0.504742    0.227576     0.008887
AG774   AG        0.585871    0.542609    0.261544     0.008887
AG775   AG        0.623148    0.506959    0.262393     0.008887
AG776   AG        0.620466    0.544723    0.226435     0.008887
AG777   AG        0.651363    0.502272    0.230181     0.008887
AG778   AG        0.659181    0.542225    0.262355     0.008887
AG779   AG        0.691336    0.503379    0.259522     0.008887
NI780   NI        0.689373    0.524651    0.218142     0.004307
NI781   NI        0.729795    0.504490    0.232801     0.004307
NI782   NI        0.720105    0.540583    0.267231     0.004307
AG783   AG        0.764091    0.508235    0.262903     0.008887
NI784   NI        0.773565    0.537052    0.223419     0.004307
NI785   NI        0.804754    0.510142    0.262237     0.004307
NI786   NI        0.784209    0.548277    0.265962     0.004307
AG787   AG        0.130067    0.569622    0.267842     0.008887
NI788   NI        0.131178    0.642489    0.267752     0.004307
NI789   NI        0.160373    0.572193    0.232062     0.004307
NI790   NI        0.160880    0.601278    0.261188     0.004307
AG791   AG        0.191384    0.571818    0.263415     0.008887
NI792   NI        0.212755    0.594758    0.223659     0.004307
NI793   NI        0.227038    0.577083    0.227438     0.004307
NI794   NI        0.226641    0.612306    0.258148     0.004307
AG795   AG        0.264484    0.577411    0.262346     0.008887
NI796   NI        0.265303    0.611625    0.226469     0.004307
AG797   AG        0.298109    0.579025    0.224915     0.008887
AG798   AG        0.298524    0.614933    0.260712     0.008887
AG799   AG        0.333086    0.578703    0.260366     0.008887
AG800   AG        0.335252    0.616912    0.224792     0.008887
AG801   AG        0.373501    0.577446    0.221853     0.008887
AG802   AG        0.372192    0.615628    0.259740     0.008887
AG803   AG        0.407556    0.581266    0.262390     0.008887
AG804   AG        0.405076    0.614627    0.223445     0.008887
AG805   AG        0.441870    0.577240    0.225154     0.008887
AG806   AG        0.444523    0.615777    0.262157     0.008887
AG807   AG        0.477893    0.576803    0.261267     0.008887
AG808   AG        0.478801    0.614107    0.225927     0.008887
AG809   AG        0.513525    0.578967    0.222156     0.008887
AG810   AG        0.515999    0.612190    0.260569     0.008887
AG811   AG        0.550736    0.578731    0.262041     0.008887
AG812   AG        0.549664    0.614500    0.223070     0.008887
AG813   AG        0.587366    0.576293    0.226087     0.008887
AG814   AG        0.586559    0.613272    0.261851     0.008887
AG815   AG        0.622110    0.578939    0.263471     0.008887
AG816   AG        0.620303    0.613136    0.229432     0.008887
AG817   AG        0.653288    0.580578    0.230636     0.008887
AG818   AG        0.653961    0.616702    0.265987     0.008887
AG819   AG        0.691664    0.578517    0.263142     0.008887
NI820   NI        0.662707    0.610069    0.262527     0.004307
NI821   NI        0.690560    0.600390    0.219157     0.004307
NI822   NI        0.716824    0.614337    0.261639     0.004307
NI823   NI        0.744915    0.578004    0.262703     0.004307
NI824   NI        0.733462    0.613535    0.219856     0.004307
NI825   NI        0.151783    0.605111    0.259413     0.004307
NI826   NI        0.195428    0.609452    0.231301     0.004307
NI827   NI        0.196855    0.672644    0.267417     0.004307
NI828   NI        0.221187    0.643739    0.239514     0.004307
NI829   NI        0.194211    0.675040    0.219317     0.004307
NI830   NI        0.231743    0.644144    0.229716     0.004307
NI831   NI        0.232227    0.678204    0.271483     0.004307
AG832   AG        0.265320    0.645701    0.261918     0.008887
NI833   NI        0.257659    0.680980    0.224611     0.004307
AG834   AG        0.297454    0.648863    0.224137     0.008887
NI835   NI        0.297320    0.684478    0.261089     0.004307
AG836   AG        0.333155    0.652127    0.260595     0.008887
AG837   AG        0.334529    0.686076    0.223336     0.008887
AG838   AG        0.368739    0.651001    0.225142     0.008887
AG839   AG        0.370347    0.688642    0.257657     0.008887
AG840   AG        0.405050    0.654442    0.262273     0.008887
AG841   AG        0.405800    0.687186    0.224824     0.008887
AG842   AG        0.442710    0.651206    0.225510     0.008887
AG843   AG        0.442760    0.689731    0.260594     0.008887
AG844   AG        0.480300    0.652047    0.258787     0.008887
AG845   AG        0.479178    0.689346    0.226209     0.008887
AG846   AG        0.516137    0.651529    0.224851     0.008887
AG847   AG        0.513425    0.686926    0.261421     0.008887
AG848   AG        0.553217    0.652356    0.261542     0.008887
AG849   AG        0.548813    0.686124    0.222605     0.008887
AG850   AG        0.583469    0.651121    0.226871     0.008887
AG851   AG        0.585305    0.683775    0.262302     0.008887
NI852   NI        0.612847    0.648072    0.266569     0.004307
NI853   NI        0.622924    0.651160    0.264545     0.004307
NI854   NI        0.657130    0.631315    0.219727     0.004307
NI855   NI        0.649069    0.685173    0.274261     0.004307
NI856   NI        0.686338    0.650996    0.271291     0.004307
NI857   NI        0.649580    0.649738    0.237315     0.004307
NI858   NI        0.695525    0.648515    0.226613     0.004307
NI859   NI        0.721127    0.676170    0.262655     0.004307
NI860   NI        0.765159    0.616987    0.260474     0.004307
NI861   NI        0.190888    0.718455    0.286930     0.004307
NI862   NI        0.217244    0.695434    0.233765     0.004307
NI863   NI        0.259560    0.762224    0.258214     0.004307
NI864   NI        0.258176    0.716344    0.263108     0.004307
NI865   NI        0.253746    0.728614    0.223482     0.004307
NI866   NI        0.295833    0.742928    0.263755     0.004307
NI867   NI        0.331032    0.742897    0.297761     0.004307
AG868   AG        0.334901    0.723157    0.261448     0.008887
NI869   NI        0.327795    0.740166    0.220643     0.004307
AG870   AG        0.369267    0.724176    0.221696     0.008887
NI871   NI        0.369209    0.760136    0.263791     0.004307
AG872   AG        0.405699    0.723880    0.259152     0.008887
NI873   NI        0.405942    0.759442    0.221066     0.004307
AG874   AG        0.441270    0.721680    0.224563     0.008887
NI875   NI        0.439733    0.755227    0.261785     0.004307
AG876   AG        0.478885    0.723727    0.263304     0.008887
NI877   NI        0.474329    0.748272    0.223222     0.004307
AG878   AG        0.512475    0.722726    0.223740     0.008887
NI879   NI        0.513827    0.753308    0.262611     0.004307
NI880   NI        0.546243    0.715203    0.257882     0.004307
NI881   NI        0.551345    0.753246    0.225019     0.004307
AG882   AG        0.585217    0.711329    0.225369     0.008887
NI883   NI        0.581407    0.748889    0.262491     0.004307
NI884   NI        0.608198    0.688877    0.297749     0.004307
NI885   NI        0.625833    0.774520    0.248681     0.004307
NI886   NI        0.653680    0.718184    0.257515     0.004307
NI887   NI        0.662479    0.759569    0.274908     0.004307
NI888   NI        0.692548    0.732568    0.282053     0.004307
NI889   NI        0.326188    0.765999    0.256048     0.004307
NI890   NI        0.360597    0.775277    0.220420     0.004307
NI891   NI        0.401263    0.793269    0.269730     0.004307
NI892   NI        0.445474    0.784289    0.223845     0.004307
NI893   NI        0.440167    0.809134    0.264858     0.004307
NI894   NI        0.480788    0.778173    0.255953     0.004307
NI895   NI        0.514199    0.772929    0.225910     0.004307
NI896   NI        0.552356    0.782574    0.257346     0.004307
NI897   NI        0.339511    0.067281    0.329397     0.004307
NI898   NI        0.326359    0.023551    0.334546     0.004307
NI899   NI        0.366866    0.053395    0.331829     0.004307
NI900   NI        0.408170    0.045967    0.309894     0.004307
NI901   NI        0.446897    0.056891    0.328426     0.004307
NI902   NI        0.483534    0.056544    0.295904     0.004307
NI903   NI        0.513809    0.046848    0.335447     0.004307
NI904   NI        0.563014    0.043268    0.268345     0.004307
NI905   NI        0.588901    0.061917    0.342994     0.004307
NI906   NI        0.188697    0.099834    0.336623     0.004307
NI907   NI        0.230441    0.114464    0.329672     0.004307
NI908   NI        0.258619    0.083353    0.335137     0.004307
NI909   NI        0.267023    0.106951    0.298676     0.004307
NI910   NI        0.302000    0.075875    0.305780     0.004307
NI911   NI        0.293246    0.109656    0.336571     0.004307
NI912   NI        0.331308    0.086160    0.339389     0.004307
NI913   NI        0.336428    0.106883    0.297465     0.004307
NI914   NI        0.374198    0.083628    0.297664     0.004307
AG915   AG        0.369396    0.107403    0.333226     0.008887
NI916   NI        0.405615    0.083815    0.336977     0.004307
NI917   NI        0.406182    0.114450    0.303336     0.004307
NI918   NI        0.447981    0.153850    0.294045     0.004307
NI919   NI        0.443586    0.106634    0.333072     0.004307
NI920   NI        0.486176    0.084179    0.337427     0.004307
NI921   NI        0.477089    0.105729    0.295656     0.004307
NI922   NI        0.525840    0.068890    0.294905     0.004307
NI923   NI        0.521639    0.123440    0.332483     0.004307
NI924   NI        0.556176    0.091740    0.331896     0.004307
NI925   NI        0.547184    0.104220    0.296590     0.004307
NI926   NI        0.573418    0.070194    0.301366     0.004307
NI927   NI        0.587033    0.107115    0.333193     0.004307
NI928   NI        0.628558    0.062030    0.361047     0.004307
NI929   NI        0.625490    0.095288    0.323737     0.004307
NI930   NI        0.664107    0.111093    0.338413     0.004307
NI931   NI        0.699388    0.153289    0.293731     0.004307
NI932   NI        0.129510    0.181106    0.300544     0.004307
NI933   NI        0.157290    0.148987    0.296211     0.004307
NI934   NI        0.158242    0.186253    0.330638     0.004307
NI935   NI        0.189975    0.147982    0.329508     0.004307
NI936   NI        0.192704    0.183782    0.301297     0.004307
NI937   NI        0.227332    0.145125    0.299535     0.004307
AG938   AG        0.224544    0.180364    0.335005     0.008887
NI939   NI        0.263848    0.143315    0.333124     0.004307
NI940   NI        0.258222    0.182186    0.293814     0.004307
NI941   NI        0.301318    0.140801    0.299423     0.004307
NI942   NI        0.307075    0.211873    0.305740     0.004307
AG943   AG        0.334305    0.138748    0.336051     0.008887
AG944   AG        0.336482    0.178065    0.299684     0.008887
AG945   AG        0.369502    0.141807    0.300309     0.008887
AG946   AG        0.371014    0.177157    0.337786     0.008887
AG947   AG        0.407351    0.139694    0.337469     0.008887
AG948   AG        0.405295    0.176728    0.298548     0.008887
AG949   AG        0.442533    0.138753    0.299466     0.008887
AG950   AG        0.440822    0.174749    0.335824     0.008887
AG951   AG        0.476503    0.139300    0.334238     0.008887
NI952   NI        0.478877    0.194005    0.287418     0.004307
AG953   AG        0.517537    0.141286    0.297940     0.008887
AG954   AG        0.514088    0.173451    0.336753     0.008887
AG955   AG        0.550993    0.141627    0.337925     0.008887
AG956   AG        0.550736    0.176525    0.301293     0.008887
AG957   AG        0.559070    0.122628    0.300144     0.008887
AG958   AG        0.586076    0.173885    0.335682     0.008887
NI959   NI        0.626154    0.143818    0.337769     0.004307
AG960   AG        0.622696    0.179843    0.300277     0.008887
NI961   NI        0.656939    0.143041    0.296915     0.004307
AG962   AG        0.662144    0.179176    0.333668     0.008887
NI963   NI        0.691758    0.148450    0.342073     0.004307
NI964   NI        0.696611    0.182109    0.299207     0.004307
NI965   NI        0.708661    0.171235    0.330947     0.004307
NI966   NI        0.726012    0.176517    0.339359     0.004307
NI967   NI        0.741768    0.175604    0.295843     0.004307
NI968   NI        0.086782    0.275252    0.318590     0.004307
NI969   NI        0.129598    0.219155    0.329629     0.004307
NI970   NI        0.125362    0.262257    0.301513     0.004307
NI971   NI        0.157424    0.221941    0.299278     0.004307
AG972   AG        0.161352    0.255128    0.333559     0.008887
AG973   AG        0.194864    0.218438    0.332248     0.008887
AG974   AG        0.191348    0.252641    0.298391     0.008887
AG975   AG        0.224316    0.216229    0.298161     0.008887
AG976   AG        0.225629    0.249525    0.334855     0.008887
NI977   NI        0.262046    0.214450    0.333121     0.004307
AG978   AG        0.258722    0.251531    0.298164     0.008887
NI979   NI        0.298234    0.215942    0.298555     0.004307
AG980   AG        0.299422    0.251744    0.334032     0.008887
AG981   AG        0.335501    0.213081    0.336964     0.008887
AG982   AG        0.335839    0.251152    0.298384     0.008887
AG983   AG        0.371375    0.213121    0.298820     0.008887
AG984   AG        0.371731    0.249671    0.335739     0.008887
AG985   AG        0.407163    0.212064    0.335171     0.008887
AG986   AG        0.406129    0.249567    0.298420     0.008887
AG987   AG        0.440662    0.213648    0.299420     0.008887
AG988   AG        0.443834    0.247036    0.333968     0.008887
AG989   AG        0.479606    0.210685    0.333319     0.008887
AG990   AG        0.479850    0.247969    0.300247     0.008887
AG991   AG        0.518709    0.213474    0.298061     0.008887
AG992   AG        0.513820    0.250018    0.333749     0.008887
AG993   AG        0.551095    0.210601    0.336926     0.008887
AG994   AG        0.551990    0.249167    0.298661     0.008887
NI995   NI        0.585940    0.212820    0.299338     0.004307
AG996   AG        0.590497    0.248392    0.334853     0.008887
AG997   AG        0.624399    0.212185    0.337146     0.008887
AG998   AG        0.623309    0.251021    0.298978     0.008887
AG999   AG        0.658247    0.216381    0.297156     0.008887
AG1000   AG        0.659249    0.250870    0.333529     0.008887
AG1001   AG        0.694622    0.216104    0.338227     0.008887
AG1002   AG        0.694853    0.253384    0.300518     0.008887
NI1003   NI        0.698136    0.197109    0.299084     0.004307
AG1004   AG        0.730711    0.250691    0.334123     0.008887
NI1005   NI        0.739633    0.207100    0.328717     0.004307
NI1006   NI        0.758901    0.254566    0.291380     0.004307
NI1007   NI        0.775047    0.241248    0.331893     0.004307
NI1008   NI        0.042117    0.280625    0.328078     0.004307
NI1009   NI        0.047867    0.309695    0.316882     0.004307
NI1010   NI        0.080742    0.282000    0.305553     0.004307
NI1011   NI        0.131651    0.286654    0.327156     0.004307
NI1012   NI        0.130181    0.292922    0.333090     0.004307
NI1013   NI        0.110511    0.323140    0.299044     0.004307
NI1014   NI        0.166687    0.292171    0.299826     0.004307
NI1015   NI        0.153518    0.327707    0.337246     0.004307
AG1016   AG        0.191988    0.288504    0.335149     0.008887
AG1017   AG        0.223897    0.353091    0.297124     0.008887
AG1018   AG        0.229134    0.285316    0.296587     0.008887
AG1019   AG        0.226965    0.322360    0.336885     0.008887
AG1020   AG        0.262965    0.285208    0.337344     0.008887
AG1021   AG        0.262873    0.323686    0.297409     0.008887
AG1022   AG        0.298443    0.287957    0.299228     0.008887
AG1023   AG        0.299615    0.320827    0.334527     0.008887
AG1024   AG        0.335327    0.285601    0.333829     0.008887
AG1025   AG        0.334957    0.324562    0.296683     0.008887
AG1026   AG        0.372237    0.286432    0.300403     0.008887
AG1027   AG        0.371440    0.323974    0.336915     0.008887
AG1028   AG        0.408003    0.287152    0.334694     0.008887
AG1029   AG        0.406913    0.325550    0.298898     0.008887
AG1030   AG        0.443035    0.284700    0.299637     0.008887
AG1031   AG        0.444025    0.320318    0.334963     0.008887
AG1032   AG        0.481709    0.286498    0.338454     0.008887
AG1033   AG        0.479603    0.322978    0.300277     0.008887
AG1034   AG        0.513590    0.288480    0.298851     0.008887
AG1035   AG        0.516556    0.320867    0.334721     0.008887
AG1036   AG        0.549052    0.284938    0.334763     0.008887
AG1037   AG        0.549217    0.323276    0.297834     0.008887
AG1038   AG        0.587241    0.286579    0.298511     0.008887
AG1039   AG        0.588842    0.324255    0.336240     0.008887
AG1040   AG        0.623327    0.286777    0.335330     0.008887
AG1041   AG        0.624824    0.323739    0.299416     0.008887
AG1042   AG        0.662033    0.286625    0.299409     0.008887
AG1043   AG        0.657798    0.324391    0.337037     0.008887
AG1044   AG        0.697797    0.287003    0.334614     0.008887
AG1045   AG        0.696335    0.321832    0.298755     0.008887
AG1046   AG        0.730570    0.287662    0.299344     0.008887
AG1047   AG        0.731503    0.320717    0.335732     0.008887
AG1048   AG        0.761300    0.285876    0.334732     0.008887
NI1049   NI        0.758256    0.323483    0.301128     0.004307
NI1050   NI        0.791356    0.292295    0.301741     0.004307
AG1051   AG        0.789701    0.321678    0.335650     0.008887
NI1052   NI        0.831931    0.297435    0.331086     0.004307
NI1053   NI        0.833577    0.318498    0.311947     0.004307
NI1054   NI        0.069996    0.354926    0.318088     0.004307
NI1055   NI        0.062595    0.397869    0.290689     0.004307
NI1056   NI        0.104335    0.367541    0.286337     0.004307
NI1057   NI        0.078749    0.394147    0.337722     0.004307
NI1058   NI        0.111469    0.360159    0.336920     0.004307
NI1059   NI        0.165921    0.436074    0.295779     0.004307
NI1060   NI        0.186929    0.362420    0.330530     0.004307
NI1061   NI        0.173813    0.415973    0.332909     0.004307
NI1062   NI        0.193639    0.360051    0.336046     0.004307
AG1063   AG        0.192491    0.395115    0.295073     0.008887
NI1064   NI        0.228379    0.364866    0.301649     0.004307
AG1065   AG        0.224579    0.395982    0.333750     0.008887
AG1066   AG        0.259111    0.359918    0.332198     0.008887
AG1067   AG        0.260600    0.394006    0.295919     0.008887
AG1068   AG        0.298235    0.358475    0.299222     0.008887
AG1069   AG        0.297831    0.394440    0.334866     0.008887
AG1070   AG        0.334557    0.358686    0.333827     0.008887
AG1071   AG        0.334333    0.393879    0.298209     0.008887
AG1072   AG        0.370607    0.360449    0.297030     0.008887
AG1073   AG        0.371777    0.398538    0.335398     0.008887
AG1074   AG        0.404375    0.360102    0.333190     0.008887
AG1075   AG        0.405255    0.395859    0.297715     0.008887
AG1076   AG        0.441433    0.360287    0.299681     0.008887
AG1077   AG        0.442405    0.397014    0.335547     0.008887
AG1078   AG        0.477390    0.358816    0.334239     0.008887
AG1079   AG        0.477221    0.395148    0.297858     0.008887
AG1080   AG        0.514279    0.359561    0.299180     0.008887
AG1081   AG        0.513214    0.396775    0.336500     0.008887
AG1082   AG        0.551759    0.358741    0.334112     0.008887
AG1083   AG        0.549171    0.395740    0.299638     0.008887
AG1084   AG        0.587551    0.358151    0.297168     0.008887
AG1085   AG        0.586792    0.396527    0.335845     0.008887
AG1086   AG        0.625155    0.361906    0.335219     0.008887
AG1087   AG        0.619545    0.397802    0.300608     0.008887
AG1088   AG        0.661577    0.359239    0.300439     0.008887
AG1089   AG        0.658136    0.397319    0.333462     0.008887
AG1090   AG        0.696383    0.358057    0.335972     0.008887
NI1091   NI        0.694076    0.392577    0.299838     0.004307
AG1092   AG        0.732523    0.358411    0.300363     0.008887
AG1093   AG        0.732429    0.395363    0.334865     0.008887
AG1094   AG        0.760683    0.361228    0.334048     0.008887
NI1095   NI        0.754427    0.396422    0.295078     0.004307
NI1096   NI        0.785829    0.362089    0.297042     0.004307
NI1097   NI        0.790037    0.395071    0.333823     0.004307
NI1098   NI        0.828053    0.347547    0.340557     0.004307
NI1099   NI        0.837805    0.400172    0.325641     0.004307
NI1100   NI        0.077245    0.415318    0.331056     0.004307
NI1101   NI        0.040854    0.455103    0.332386     0.004307
NI1102   NI        0.087223    0.445146    0.299908     0.004307
NI1103   NI        0.114168    0.502721    0.336891     0.004307
NI1104   NI        0.108608    0.436859    0.340621     0.004307
NI1105   NI        0.136326    0.471727    0.296597     0.004307
NI1106   NI        0.154290    0.429896    0.295184     0.004307
AG1107   AG        0.149728    0.463846    0.337604     0.008887
NI1108   NI        0.226805    0.421561    0.351226     0.004307
NI1109   NI        0.179865    0.442591    0.296997     0.004307
AG1110   AG        0.225675    0.432701    0.296705     0.008887
AG1111   AG        0.227220    0.468381    0.334440     0.008887
AG1112   AG        0.263417    0.431280    0.332361     0.008887
AG1113   AG        0.262326    0.471519    0.296913     0.008887
AG1114   AG        0.295386    0.431146    0.296130     0.008887
AG1115   AG        0.300317    0.469348    0.332222     0.008887
NI1116   NI        0.361960    0.420716    0.332876     0.004307
AG1117   AG        0.332691    0.469099    0.296782     0.008887
AG1118   AG        0.371409    0.431911    0.296298     0.008887
AG1119   AG        0.370484    0.467130    0.333199     0.008887
AG1120   AG        0.404444    0.432235    0.334471     0.008887
AG1121   AG        0.406546    0.468259    0.298173     0.008887
AG1122   AG        0.442474    0.434166    0.298937     0.008887
AG1123   AG        0.442867    0.470108    0.333032     0.008887
AG1124   AG        0.478912    0.433878    0.334760     0.008887
AG1125   AG        0.476658    0.470589    0.295035     0.008887
AG1126   AG        0.514666    0.432479    0.296011     0.008887
NI1127   NI        0.548396    0.501090    0.337430     0.004307
AG1128   AG        0.548350    0.433812    0.333708     0.008887
AG1129   AG        0.551029    0.471509    0.295272     0.008887
AG1130   AG        0.586417    0.434628    0.299565     0.008887
AG1131   AG        0.586484    0.470895    0.335458     0.008887
AG1132   AG        0.622024    0.433731    0.338455     0.008887
AG1133   AG        0.621248    0.468702    0.297597     0.008887
NI1134   NI        0.657301    0.431226    0.297587     0.004307
AG1135   AG        0.658657    0.470818    0.335013     0.008887
NI1136   NI        0.650438    0.461498    0.360465     0.004307
AG1137   AG        0.696150    0.471777    0.299145     0.008887
AG1138   AG        0.731002    0.436036    0.301038     0.008887
AG1139   AG        0.736931    0.469952    0.336025     0.008887
AG1140   AG        0.763349    0.433168    0.337079     0.008887
AG1141   AG        0.761735    0.470008    0.298914     0.008887
NI1142   NI        0.786976    0.435183    0.299198     0.004307
NI1143   NI        0.790101    0.474432    0.338277     0.004307
NI1144   NI        0.811550    0.438806    0.330775     0.004307
NI1145   NI        0.808195    0.479858    0.298218     0.004307
NI1146   NI        0.056661    0.481176    0.367874     0.004307
NI1147   NI        0.051546    0.532577    0.291927     0.004307
NI1148   NI        0.065297    0.493933    0.326700     0.004307
NI1149   NI        0.081679    0.537443    0.337338     0.004307
NI1150   NI        0.135571    0.506624    0.329732     0.004307
NI1151   NI        0.122946    0.541631    0.300875     0.004307
NI1152   NI        0.166775    0.505305    0.294523     0.004307
AG1153   AG        0.159580    0.544974    0.338878     0.008887
AG1154   AG        0.189254    0.505432    0.333874     0.008887
AG1155   AG        0.191864    0.540821    0.299596     0.008887
AG1156   AG        0.224793    0.504378    0.295804     0.008887
NI1157   NI        0.260690    0.510382    0.330755     0.004307
AG1158   AG        0.265676    0.506429    0.337825     0.008887
AG1159   AG        0.263233    0.542430    0.297116     0.008887
AG1160   AG        0.298171    0.506470    0.300107     0.008887
AG1161   AG        0.301852    0.540156    0.334775     0.008887
AG1162   AG        0.337860    0.506755    0.334854     0.008887
AG1163   AG        0.334283    0.543423    0.296896     0.008887
AG1164   AG        0.368984    0.509284    0.296309     0.008887
AG1165   AG        0.373429    0.542383    0.335426     0.008887
AG1166   AG        0.405626    0.504023    0.335608     0.008887
AG1167   AG        0.407268    0.543006    0.295399     0.008887
AG1168   AG        0.441666    0.506904    0.296864     0.008887
AG1169   AG        0.440686    0.542277    0.333221     0.008887
AG1170   AG        0.478227    0.505394    0.332487     0.008887
AG1171   AG        0.480263    0.539192    0.297240     0.008887
AG1172   AG        0.516263    0.506231    0.296549     0.008887
AG1173   AG        0.515205    0.543152    0.333296     0.008887
AG1174   AG        0.554004    0.509764    0.331800     0.008887
AG1175   AG        0.549325    0.544725    0.297870     0.008887
AG1176   AG        0.586956    0.506348    0.296475     0.008887
AG1177   AG        0.585947    0.542803    0.334521     0.008887
AG1178   AG        0.622204    0.507605    0.334229     0.008887
AG1179   AG        0.624482    0.541697    0.299994     0.008887
AG1180   AG        0.657949    0.508037    0.297926     0.008887
AG1181   AG        0.657604    0.540284    0.337040     0.008887
AG1182   AG        0.694074    0.507701    0.335681     0.008887
AG1183   AG        0.690904    0.541173    0.299349     0.008887
AG1184   AG        0.730152    0.505582    0.301347     0.008887
AG1185   AG        0.729909    0.540403    0.334250     0.008887
AG1186   AG        0.761869    0.508578    0.337078     0.008887
AG1187   AG        0.756211    0.542551    0.299054     0.008887
NI1188   NI        0.788308    0.511485    0.302047     0.004307
NI1189   NI        0.806010    0.504392    0.382841     0.004307
NI1190   NI        0.810813    0.501600    0.335734     0.004307
NI1191   NI        0.842797    0.508161    0.302946     0.004307
NI1192   NI        0.087077    0.571502    0.290286     0.004307
NI1193   NI        0.123993    0.594992    0.305388     0.004307
NI1194   NI        0.114370    0.636557    0.329822     0.004307
NI1195   NI        0.158894    0.565445    0.300681     0.004307
NI1196   NI        0.128298    0.605829    0.294997     0.004307
AG1197   AG        0.166208    0.581224    0.299593     0.008887
NI1198   NI        0.152803    0.605236    0.337487     0.004307
AG1199   AG        0.191909    0.575594    0.337330     0.008887
NI1200   NI        0.230437    0.607401    0.266199     0.004307
AG1201   AG        0.226813    0.576019    0.298613     0.008887
AG1202   AG        0.225841    0.611773    0.336751     0.008887
AG1203   AG        0.263517    0.576357    0.336899     0.008887
AG1204   AG        0.261676    0.613156    0.298764     0.008887
AG1205   AG        0.297269    0.578921    0.297858     0.008887
AG1206   AG        0.297814    0.612314    0.334222     0.008887
AG1207   AG        0.335769    0.578484    0.335218     0.008887
AG1208   AG        0.332801    0.616141    0.298304     0.008887
AG1209   AG        0.370199    0.580343    0.300361     0.008887
AG1210   AG        0.369425    0.615346    0.335156     0.008887
AG1211   AG        0.404575    0.580199    0.337295     0.008887
AG1212   AG        0.406805    0.617096    0.296336     0.008887
AG1213   AG        0.442536    0.579359    0.297189     0.008887
AG1214   AG        0.442375    0.618902    0.333641     0.008887
NI1215   NI        0.474386    0.543904    0.301911     0.004307
AG1216   AG        0.479039    0.615826    0.297519     0.008887
AG1217   AG        0.516997    0.576221    0.296299     0.008887
AG1218   AG        0.515229    0.613882    0.333015     0.008887
AG1219   AG        0.553391    0.578825    0.335953     0.008887
AG1220   AG        0.550901    0.616864    0.297200     0.008887
AG1221   AG        0.585657    0.576478    0.299284     0.008887
AG1222   AG        0.587263    0.612661    0.337460     0.008887
AG1223   AG        0.622100    0.579988    0.335306     0.008887
AG1224   AG        0.620127    0.614213    0.299992     0.008887
AG1225   AG        0.657856    0.579396    0.297990     0.008887
AG1226   AG        0.659115    0.615205    0.337417     0.008887
AG1227   AG        0.692804    0.573947    0.336467     0.008887
AG1228   AG        0.692691    0.613554    0.301594     0.008887
AG1229   AG        0.718959    0.577298    0.300449     0.008887
AG1230   AG        0.717519    0.611013    0.338311     0.008887
NI1231   NI        0.748043    0.581052    0.331821     0.004307
AG1232   AG        0.744313    0.616811    0.299507     0.008887
NI1233   NI        0.769258    0.584238    0.294544     0.004307
NI1234   NI        0.756843    0.615566    0.371381     0.004307
NI1235   NI        0.792666    0.568303    0.325812     0.004307
NI1236   NI        0.154189    0.666847    0.328132     0.004307
NI1237   NI        0.157418    0.680903    0.286867     0.004307
NI1238   NI        0.149482    0.626713    0.300907     0.004307
AG1239   AG        0.193261    0.650281    0.340968     0.008887
NI1240   NI        0.185432    0.634090    0.330990     0.004307
AG1241   AG        0.196897    0.681586    0.309809     0.008887
NI1242   NI        0.224105    0.647593    0.303957     0.004307
AG1243   AG        0.229785    0.682219    0.337921     0.008887
AG1244   AG        0.262853    0.648291    0.336835     0.008887
AG1245   AG        0.265471    0.679112    0.300348     0.008887
AG1246   AG        0.298322    0.649626    0.297675     0.008887
AG1247   AG        0.297923    0.683823    0.335887     0.008887
AG1248   AG        0.335523    0.650589    0.334983     0.008887
AG1249   AG        0.333307    0.687570    0.295878     0.008887
AG1250   AG        0.370558    0.654114    0.295356     0.008887
AG1251   AG        0.369319    0.688188    0.333850     0.008887
AG1252   AG        0.404709    0.652046    0.333210     0.008887
AG1253   AG        0.407531    0.690258    0.295525     0.008887
AG1254   AG        0.444673    0.654078    0.299055     0.008887
AG1255   AG        0.441365    0.690840    0.333392     0.008887
AG1256   AG        0.479953    0.651947    0.333101     0.008887
AG1257   AG        0.476174    0.689987    0.296432     0.008887
AG1258   AG        0.514680    0.650583    0.295551     0.008887
AG1259   AG        0.513448    0.688943    0.332705     0.008887
AG1260   AG        0.548921    0.650365    0.335579     0.008887
AG1261   AG        0.551005    0.688076    0.299208     0.008887
AG1262   AG        0.586995    0.650396    0.300629     0.008887
AG1263   AG        0.587941    0.688779    0.338694     0.008887
AG1264   AG        0.623389    0.651070    0.334342     0.008887
NI1265   NI        0.625233    0.683906    0.302793     0.004307
AG1266   AG        0.655947    0.647754    0.301677     0.008887
NI1267   NI        0.695596    0.685087    0.374057     0.004307
AG1268   AG        0.691312    0.650241    0.336274     0.008887
NI1269   NI        0.689217    0.683749    0.304021     0.004307
AG1270   AG        0.719602    0.652660    0.304258     0.008887
NI1271   NI        0.723091    0.681754    0.339799     0.004307
NI1272   NI        0.750521    0.647242    0.333411     0.004307
NI1273   NI        0.779841    0.645832    0.303044     0.004307
NI1274   NI        0.161245    0.712660    0.317779     0.004307
NI1275   NI        0.200558    0.715462    0.340330     0.004307
NI1276   NI        0.213494    0.754932    0.293895     0.004307
NI1277   NI        0.229088    0.711178    0.305746     0.004307
NI1278   NI        0.227615    0.748455    0.335645     0.004307
AG1279   AG        0.265588    0.717406    0.336834     0.008887
NI1280   NI        0.259128    0.742537    0.300345     0.004307
AG1281   AG        0.296133    0.717232    0.299591     0.008887
AG1282   AG        0.298220    0.745904    0.333501     0.008887
NI1283   NI        0.315789    0.698769    0.334280     0.004307
NI1284   NI        0.339184    0.758267    0.297381     0.004307
AG1285   AG        0.372113    0.723497    0.295742     0.008887
AG1286   AG        0.372936    0.760505    0.331779     0.008887
AG1287   AG        0.405628    0.725019    0.334064     0.008887
AG1288   AG        0.405561    0.760258    0.300408     0.008887
AG1289   AG        0.441769    0.727084    0.298390     0.008887
AG1290   AG        0.443304    0.758318    0.334617     0.008887
AG1291   AG        0.477145    0.726247    0.334050     0.008887
AG1292   AG        0.479583    0.762525    0.297245     0.008887
AG1293   AG        0.515200    0.725530    0.297073     0.008887
NI1294   NI        0.516321    0.759257    0.335136     0.004307
AG1295   AG        0.550955    0.723948    0.334532     0.008887
NI1296   NI        0.551035    0.757572    0.302288     0.004307
AG1297   AG        0.580255    0.724160    0.303441     0.008887
AG1298   AG        0.581408    0.761795    0.335931     0.008887
AG1299   AG        0.616161    0.723749    0.335405     0.008887
NI1300   NI        0.613956    0.755026    0.293453     0.004307
NI1301   NI        0.645382    0.728917    0.302077     0.004307
NI1302   NI        0.657524    0.714172    0.308151     0.004307
NI1303   NI        0.696883    0.712514    0.333128     0.004307
NI1304   NI        0.682933    0.757087    0.315483     0.004307
NI1305   NI        0.729237    0.703668    0.296995     0.004307
NI1306   NI        0.264872    0.773045    0.328953     0.004307
NI1307   NI        0.296521    0.774927    0.295545     0.004307
NI1308   NI        0.291468    0.810341    0.333539     0.004307
AG1309   AG        0.327946    0.783536    0.331353     0.008887
NI1310   NI        0.325793    0.825836    0.302771     0.004307
NI1311   NI        0.364750    0.798018    0.300683     0.004307
NI1312   NI        0.363357    0.804634    0.344064     0.004307
NI1313   NI        0.407765    0.797319    0.337437     0.004307
NI1314   NI        0.404824    0.801417    0.317970     0.004307
NI1315   NI        0.445206    0.776703    0.292007     0.004307
NI1316   NI        0.448591    0.804346    0.322757     0.004307
NI1317   NI        0.482789    0.781976    0.335838     0.004307
NI1318   NI        0.480449    0.811586    0.293858     0.004307
NI1319   NI        0.517737    0.785054    0.296198     0.004307
NI1320   NI        0.514202    0.813924    0.329133     0.004307
NI1321   NI        0.552211    0.794453    0.337806     0.004307
NI1322   NI        0.558399    0.823773    0.265151     0.004307
NI1323   NI        0.582690    0.787890    0.287080     0.004307
NI1324   NI        0.597753    0.804331    0.329829     0.004307
NI1325   NI        0.598155    0.775936    0.369503     0.004307
NI1326   NI        0.292903    0.058595    0.417873     0.004307
NI1327   NI        0.338900    0.045420    0.375106     0.004307
NI1328   NI        0.366988    0.068745    0.443058     0.004307
NI1329   NI        0.405894    0.026075    0.422414     0.004307
NI1330   NI        0.440769    0.052258    0.342250     0.004307
NI1331   NI        0.441657    0.002204    0.419094     0.004307
NI1332   NI        0.478371    0.070426    0.420521     0.004307
NI1333   NI        0.522491    0.048211    0.411919     0.004307
NI1334   NI        0.488250    0.030205    0.337866     0.004307
NI1335   NI        0.542549    0.074721    0.414026     0.004307
NI1336   NI        0.542704    0.062763    0.366036     0.004307
NI1337   NI        0.562934    0.023312    0.417628     0.004307
NI1338   NI        0.152567    0.108191    0.403710     0.004307
NI1339   NI        0.218851    0.084901    0.373023     0.004307
NI1340   NI        0.242649    0.044967    0.352508     0.004307
NI1341   NI        0.218127    0.118115    0.403214     0.004307
NI1342   NI        0.257537    0.094059    0.411527     0.004307
NI1343   NI        0.253360    0.111415    0.367647     0.004307
NI1344   NI        0.334850    0.080575    0.409912     0.004307
NI1345   NI        0.298945    0.103970    0.407743     0.004307
NI1346   NI        0.335886    0.064231    0.413179     0.004307
NI1347   NI        0.333501    0.106767    0.368719     0.004307
NI1348   NI        0.367974    0.083825    0.369209     0.004307
AG1349   AG        0.369245    0.104634    0.408832     0.008887
AG1350   AG        0.404944    0.069196    0.410522     0.008887
AG1351   AG        0.405759    0.104913    0.373766     0.008887
NI1352   NI        0.448778    0.096492    0.358216     0.004307
AG1353   AG        0.441662    0.104546    0.407403     0.008887
NI1354   NI        0.486015    0.084086    0.412328     0.004307
NI1355   NI        0.477705    0.109941    0.371906     0.004307
NI1356   NI        0.518193    0.066368    0.372470     0.004307
NI1357   NI        0.520983    0.139235    0.377467     0.004307
NI1358   NI        0.558105    0.074062    0.411248     0.004307
AG1359   AG        0.552457    0.105856    0.374134     0.008887
NI1360   NI        0.591856    0.083046    0.370186     0.004307
AG1361   AG        0.587022    0.107194    0.408927     0.008887
NI1362   NI        0.627066    0.085641    0.410483     0.004307
NI1363   NI        0.629323    0.109548    0.371055     0.004307
NI1364   NI        0.665290    0.091640    0.360370     0.004307
NI1365   NI        0.664949    0.107891    0.404655     0.004307
NI1366   NI        0.696267    0.118713    0.372251     0.004307
NI1367   NI        0.729548    0.109276    0.400062     0.004307
NI1368   NI        0.148526    0.171959    0.415308     0.004307
NI1369   NI        0.149474    0.169539    0.369083     0.004307
NI1370   NI        0.178660    0.132932    0.372105     0.004307
NI1371   NI        0.152884    0.180984    0.400330     0.004307
AG1372   AG        0.192149    0.157379    0.404208     0.008887
AG1373   AG        0.193904    0.180571    0.366440     0.008887
AG1374   AG        0.224793    0.143983    0.367754     0.008887
NI1375   NI        0.226388    0.181885    0.406491     0.004307
AG1376   AG        0.260832    0.141337    0.405337     0.008887
AG1377   AG        0.261228    0.176423    0.371447     0.008887
AG1378   AG        0.295795    0.136032    0.372714     0.008887
AG1379   AG        0.296510    0.175440    0.406175     0.008887
AG1380   AG        0.333221    0.141266    0.406284     0.008887
AG1381   AG        0.334532    0.174724    0.372425     0.008887
AG1382   AG        0.370716    0.137917    0.369500     0.008887
AG1383   AG        0.369367    0.175661    0.408361     0.008887
AG1384   AG        0.405057    0.139030    0.408908     0.008887
AG1385   AG        0.405409    0.174827    0.372831     0.008887
AG1386   AG        0.440418    0.139208    0.374124     0.008887
AG1387   AG        0.441494    0.176020    0.408319     0.008887
AG1388   AG        0.479152    0.139204    0.407628     0.008887
AG1389   AG        0.477528    0.174911    0.370304     0.008887
NI1390   NI        0.513011    0.141765    0.372224     0.004307
AG1391   AG        0.513951    0.176298    0.406016     0.008887
AG1392   AG        0.550777    0.140321    0.409902     0.008887
AG1393   AG        0.552182    0.173235    0.372182     0.008887
AG1394   AG        0.587886    0.138192    0.373020     0.008887
AG1395   AG        0.588629    0.175376    0.407772     0.008887
AG1396   AG        0.625276    0.138127    0.405845     0.008887
AG1397   AG        0.623303    0.174817    0.371090     0.008887
AG1398   AG        0.658825    0.142338    0.372766     0.008887
AG1399   AG        0.659827    0.177146    0.404661     0.008887
NI1400   NI        0.690733    0.142942    0.404831     0.004307
AG1401   AG        0.692157    0.181509    0.371723     0.008887
NI1402   NI        0.738777    0.173327    0.362167     0.004307
NI1403   NI        0.718622    0.177207    0.406891     0.004307
NI1404   NI        0.734122    0.180549    0.408276     0.004307
NI1405   NI        0.741189    0.211276    0.400049     0.004307
NI1406   NI        0.101960    0.214328    0.367125     0.004307
NI1407   NI        0.109010    0.254374    0.406877     0.004307
NI1408   NI        0.133462    0.216790    0.404040     0.004307
NI1409   NI        0.130636    0.246683    0.367527     0.004307
AG1410   AG        0.164367    0.217785    0.365134     0.008887
AG1411   AG        0.159059    0.253981    0.402645     0.008887
AG1412   AG        0.185720    0.212500    0.404669     0.008887
AG1413   AG        0.190788    0.252749    0.372315     0.008887
AG1414   AG        0.226006    0.215917    0.371409     0.008887
AG1415   AG        0.228790    0.247224    0.406210     0.008887
AG1416   AG        0.263277    0.214849    0.408675     0.008887
AG1417   AG        0.259519    0.250240    0.372651     0.008887
AG1418   AG        0.294866    0.213581    0.368602     0.008887
AG1419   AG        0.296471    0.251748    0.407229     0.008887
NI1420   NI        0.327595    0.249141    0.374503     0.004307
AG1421   AG        0.336742    0.252178    0.369108     0.008887
AG1422   AG        0.370658    0.211905    0.370593     0.008887
AG1423   AG        0.372552    0.250537    0.408993     0.008887
AG1424   AG        0.406374    0.211649    0.410617     0.008887
AG1425   AG        0.407621    0.249841    0.370020     0.008887
AG1426   AG        0.443947    0.211575    0.371568     0.008887
AG1427   AG        0.442862    0.249446    0.406039     0.008887
AG1428   AG        0.478072    0.212454    0.411177     0.008887
AG1429   AG        0.480511    0.247644    0.369442     0.008887
AG1430   AG        0.517905    0.212644    0.371797     0.008887
AG1431   AG        0.512847    0.250341    0.406930     0.008887
AG1432   AG        0.551809    0.211625    0.407904     0.008887
NI1433   NI        0.595634    0.292642    0.376790     0.004307
AG1434   AG        0.586823    0.212072    0.372423     0.008887
AG1435   AG        0.586460    0.252782    0.408134     0.008887
AG1436   AG        0.624724    0.212597    0.406330     0.008887
AG1437   AG        0.623413    0.248925    0.370199     0.008887
AG1438   AG        0.660838    0.214654    0.370990     0.008887
AG1439   AG        0.661137    0.250396    0.406595     0.008887
AG1440   AG        0.696407    0.214845    0.405567     0.008887
AG1441   AG        0.697699    0.251415    0.370060     0.008887
AG1442   AG        0.729107    0.215869    0.372768     0.008887
AG1443   AG        0.731612    0.252712    0.407933     0.008887
NI1444   NI        0.759478    0.214845    0.416103     0.004307
NI1445   NI        0.763522    0.251751    0.372938     0.004307
NI1446   NI        0.770015    0.202615    0.368831     0.004307
NI1447   NI        0.757219    0.290522    0.411930     0.004307
NI1448   NI        0.077276    0.283360    0.409751     0.004307
NI1449   NI        0.093674    0.317438    0.338725     0.004307
NI1450   NI        0.106177    0.284080    0.367845     0.004307
NI1451   NI        0.098171    0.322932    0.406093     0.004307
AG1452   AG        0.131820    0.290566    0.406017     0.008887
NI1453   NI        0.127395    0.324599    0.369110     0.004307
AG1454   AG        0.154583    0.287378    0.369983     0.008887
AG1455   AG        0.156058    0.326303    0.406212     0.008887
AG1456   AG        0.185558    0.293019    0.402440     0.008887
AG1457   AG        0.187760    0.324019    0.368498     0.008887
AG1458   AG        0.226246    0.285615    0.371092     0.008887
AG1459   AG        0.224333    0.323583    0.407234     0.008887
AG1460   AG        0.263072    0.288069    0.408256     0.008887
AG1461   AG        0.261309    0.324337    0.371759     0.008887
AG1462   AG        0.299222    0.286858    0.369696     0.008887
AG1463   AG        0.297271    0.322996    0.405896     0.008887
AG1464   AG        0.333920    0.285981    0.406123     0.008887
AG1465   AG        0.334330    0.327393    0.370191     0.008887
AG1466   AG        0.372624    0.288708    0.372703     0.008887
AG1467   AG        0.371839    0.323478    0.406913     0.008887
AG1468   AG        0.408488    0.287981    0.410876     0.008887
AG1469   AG        0.406519    0.324247    0.369293     0.008887
AG1470   AG        0.478147    0.327431    0.368604     0.008887
AG1471   AG        0.443074    0.323027    0.406203     0.008887
AG1472   AG        0.477907    0.285739    0.409590     0.008887
AG1473   AG        0.482303    0.320005    0.371431     0.008887
AG1474   AG        0.514046    0.285407    0.372376     0.008887
AG1475   AG        0.507197    0.332381    0.412974     0.008887
AG1476   AG        0.551118    0.287445    0.409546     0.008887
AG1477   AG        0.554160    0.322726    0.368854     0.008887
AG1478   AG        0.584801    0.283727    0.368571     0.008887
AG1479   AG        0.589243    0.322438    0.407531     0.008887
AG1480   AG        0.625771    0.284825    0.407853     0.008887
AG1481   AG        0.624548    0.324396    0.371997     0.008887
AG1482   AG        0.660093    0.284923    0.369340     0.008887
AG1483   AG        0.660281    0.323413    0.405765     0.008887
AG1484   AG        0.698050    0.285478    0.404323     0.008887
AG1485   AG        0.699191    0.321165    0.370312     0.008887
AG1486   AG        0.736064    0.286180    0.371460     0.008887
AG1487   AG        0.731350    0.325170    0.408602     0.008887
NI1488   NI        0.766819    0.287212    0.411428     0.004307
AG1489   AG        0.766056    0.318582    0.372417     0.008887
NI1490   NI        0.787539    0.291608    0.369517     0.004307
NI1491   NI        0.797782    0.317015    0.407438     0.004307
NI1492   NI        0.843506    0.305199    0.416409     0.004307
NI1493   NI        0.820410    0.320691    0.374050     0.004307
NI1494   NI        0.000714    0.399279    0.406837     0.004307
NI1495   NI        0.034998    0.367574    0.406071     0.004307
NI1496   NI        0.051300    0.392474    0.371587     0.004307
NI1497   NI        0.079763    0.355835    0.368687     0.004307
NI1498   NI        0.082483    0.393129    0.403350     0.004307
AG1499   AG        0.117751    0.360763    0.405713     0.008887
NI1500   NI        0.113775    0.395990    0.368786     0.004307
NI1501   NI        0.153161    0.360310    0.371388     0.004307
AG1502   AG        0.151032    0.396952    0.405906     0.008887
AG1503   AG        0.187681    0.361301    0.407929     0.008887
AG1504   AG        0.189562    0.394873    0.369667     0.008887
AG1505   AG        0.223001    0.358574    0.368398     0.008887
AG1506   AG        0.224372    0.395883    0.405568     0.008887
AG1507   AG        0.261037    0.358590    0.404904     0.008887
AG1508   AG        0.260121    0.397845    0.369029     0.008887
AG1509   AG        0.296595    0.360265    0.369926     0.008887
AG1510   AG        0.296672    0.395844    0.407303     0.008887
AG1511   AG        0.334626    0.357916    0.407354     0.008887
AG1512   AG        0.336679    0.397019    0.372559     0.008887
AG1513   AG        0.372918    0.361476    0.369971     0.008887
AG1514   AG        0.371974    0.398919    0.407011     0.008887
AG1515   AG        0.407305    0.360283    0.405281     0.008887
AG1516   AG        0.406253    0.397215    0.369862     0.008887
AG1517   AG        0.443016    0.358855    0.368557     0.008887
AG1518   AG        0.443040    0.395224    0.407354     0.008887
AG1519   AG        0.476145    0.361492    0.404757     0.008887
AG1520   AG        0.476981    0.395885    0.369864     0.008887
AG1521   AG        0.514721    0.357636    0.370239     0.008887
AG1522   AG        0.513465    0.394350    0.407264     0.008887
AG1523   AG        0.552112    0.359072    0.405574     0.008887
AG1524   AG        0.554102    0.396249    0.371373     0.008887
AG1525   AG        0.588900    0.358945    0.370486     0.008887
AG1526   AG        0.588482    0.395649    0.408534     0.008887
AG1527   AG        0.627160    0.359837    0.407841     0.008887
AG1528   AG        0.625674    0.397017    0.373387     0.008887
AG1529   AG        0.660759    0.358349    0.371051     0.008887
AG1530   AG        0.660411    0.395931    0.408243     0.008887
AG1531   AG        0.699340    0.358606    0.406788     0.008887
AG1532   AG        0.697600    0.396923    0.370900     0.008887
AG1533   AG        0.733826    0.358152    0.370248     0.008887
AG1534   AG        0.737166    0.396519    0.409142     0.008887
AG1535   AG        0.765450    0.355587    0.404881     0.008887
AG1536   AG        0.766373    0.393092    0.371840     0.008887
AG1537   AG        0.790582    0.356300    0.367085     0.008887
NI1538   NI        0.790338    0.399557    0.408468     0.004307
NI1539   NI        0.786329    0.325029    0.406002     0.004307
NI1540   NI        0.819405    0.390859    0.370360     0.004307
NI1541   NI        0.815099    0.422168    0.407160     0.004307
NI1542   NI        0.019297    0.432522    0.366784     0.004307
NI1543   NI        0.022527    0.470161    0.402570     0.004307
NI1544   NI        0.039610    0.431186    0.407402     0.004307
NI1545   NI        0.044859    0.467350    0.375429     0.004307
AG1546   AG        0.076895    0.432490    0.374374     0.008887
AG1547   AG        0.075707    0.469567    0.407044     0.008887
AG1548   AG        0.115091    0.433105    0.407269     0.008887
AG1549   AG        0.112856    0.468064    0.374025     0.008887
AG1550   AG        0.149354    0.431184    0.372621     0.008887
AG1551   AG        0.151278    0.467533    0.404848     0.008887
AG1552   AG        0.187081    0.431629    0.405457     0.008887
AG1553   AG        0.189272    0.467826    0.371436     0.008887
AG1554   AG        0.226689    0.431584    0.370469     0.008887
AG1555   AG        0.224907    0.467219    0.407386     0.008887
AG1556   AG        0.259417    0.432895    0.408246     0.008887
NI1557   NI        0.260682    0.445931    0.382027     0.004307
AG1558   AG        0.300464    0.432323    0.371641     0.008887
AG1559   AG        0.297758    0.469193    0.408248     0.008887
AG1560   AG        0.335621    0.432133    0.406804     0.008887
AG1561   AG        0.334392    0.469858    0.372091     0.008887
AG1562   AG        0.371260    0.434647    0.372006     0.008887
AG1563   AG        0.373977    0.468108    0.407054     0.008887
AG1564   AG        0.408450    0.431466    0.407765     0.008887
AG1565   AG        0.408049    0.470671    0.371905     0.008887
AG1566   AG        0.442922    0.433096    0.370000     0.008887
AG1567   AG        0.442446    0.468740    0.407284     0.008887
AG1568   AG        0.476394    0.431709    0.406998     0.008887
AG1569   AG        0.478179    0.469528    0.371283     0.008887
AG1570   AG        0.514296    0.431638    0.373452     0.008887
AG1571   AG        0.516603    0.467502    0.409420     0.008887
AG1572   AG        0.552575    0.432355    0.408916     0.008887
AG1573   AG        0.551480    0.469391    0.376196     0.008887
AG1574   AG        0.589236    0.432280    0.373085     0.008887
AG1575   AG        0.586627    0.468275    0.409795     0.008887
AG1576   AG        0.626043    0.432994    0.408444     0.008887
AG1577   AG        0.622945    0.468577    0.372135     0.008887
AG1578   AG        0.660789    0.433763    0.374680     0.008887
AG1579   AG        0.662003    0.468292    0.408949     0.008887
AG1580   AG        0.698171    0.430634    0.408410     0.008887
AG1581   AG        0.696251    0.468594    0.371676     0.008887
AG1582   AG        0.735807    0.431590    0.373809     0.008887
AG1583   AG        0.734783    0.468839    0.408271     0.008887
AG1584   AG        0.766764    0.435141    0.404992     0.008887
AG1585   AG        0.769194    0.469101    0.373996     0.008887
AG1586   AG        0.793145    0.427884    0.370968     0.008887
AG1587   AG        0.794034    0.469391    0.410951     0.008887
NI1588   NI        0.819591    0.432982    0.410688     0.004307
NI1589   NI        0.817404    0.465167    0.375949     0.004307
NI1590   NI        0.837435    0.429338    0.361701     0.004307
NI1591   NI        0.857981    0.454568    0.409157     0.004307
NI1592   NI        0.047193    0.506086    0.406270     0.004307
NI1593   NI        0.058535    0.548483    0.371468     0.004307
NI1594   NI        0.081553    0.505095    0.374220     0.004307
AG1595   AG        0.087098    0.534548    0.405357     0.008887
AG1596   AG        0.115391    0.501819    0.406688     0.008887
AG1597   AG        0.119829    0.535507    0.370950     0.008887
AG1598   AG        0.154203    0.505174    0.371641     0.008887
AG1599   AG        0.150992    0.540287    0.409465     0.008887
AG1600   AG        0.188627    0.503310    0.408966     0.008887
AG1601   AG        0.188880    0.541789    0.374440     0.008887
AG1602   AG        0.222576    0.504888    0.369694     0.008887
AG1603   AG        0.223906    0.539467    0.407564     0.008887
AG1604   AG        0.262897    0.504732    0.407110     0.008887
AG1605   AG        0.263774    0.541477    0.372977     0.008887
AG1606   AG        0.299683    0.507490    0.369621     0.008887
AG1607   AG        0.299585    0.540670    0.407463     0.008887
AG1608   AG        0.334714    0.503887    0.406634     0.008887
AG1609   AG        0.336903    0.541672    0.372199     0.008887
AG1610   AG        0.371488    0.503663    0.370592     0.008887
AG1611   AG        0.370840    0.540917    0.409260     0.008887
AG1612   AG        0.406494    0.505622    0.409280     0.008887
AG1613   AG        0.408890    0.542842    0.372549     0.008887
AG1614   AG        0.442404    0.505354    0.371239     0.008887
AG1615   AG        0.444071    0.539493    0.410244     0.008887
AG1616   AG        0.480051    0.502709    0.410415     0.008887
AG1617   AG        0.478378    0.539991    0.370794     0.008887
AG1618   AG        0.514676    0.505815    0.373378     0.008887
AG1619   AG        0.513864    0.541441    0.409250     0.008887
AG1620   AG        0.547981    0.505188    0.408947     0.008887
AG1621   AG        0.552019    0.541947    0.370365     0.008887
AG1622   AG        0.586971    0.505660    0.371347     0.008887
AG1623   AG        0.586008    0.540597    0.410529     0.008887
AG1624   AG        0.623900    0.506042    0.408125     0.008887
AG1625   AG        0.623059    0.541313    0.372798     0.008887
AG1626   AG        0.660272    0.502559    0.373795     0.008887
AG1627   AG        0.659031    0.540669    0.410177     0.008887
AG1628   AG        0.696313    0.506150    0.407639     0.008887
AG1629   AG        0.693402    0.540968    0.373702     0.008887
AG1630   AG        0.733301    0.505492    0.374016     0.008887
AG1631   AG        0.732095    0.540379    0.408381     0.008887
AG1632   AG        0.767446    0.505359    0.408987     0.008887
AG1633   AG        0.765693    0.542126    0.371227     0.008887
AG1634   AG        0.791912    0.505323    0.373416     0.008887
NI1635   NI        0.806877    0.545117    0.408032     0.004307
NI1636   NI        0.827171    0.501850    0.406865     0.004307
NI1637   NI        0.792956    0.539797    0.405148     0.004307
NI1638   NI        0.086724    0.572519    0.436321     0.004307
NI1639   NI        0.089704    0.568717    0.377145     0.004307
NI1640   NI        0.093422    0.609550    0.401461     0.004307
AG1641   AG        0.121012    0.575377    0.406228     0.008887
NI1642   NI        0.116898    0.609105    0.363953     0.004307
AG1643   AG        0.154168    0.578989    0.374839     0.008887
NI1644   NI        0.157381    0.613369    0.413513     0.004307
AG1645   AG        0.189450    0.578614    0.409533     0.008887
AG1646   AG        0.189456    0.611677    0.372139     0.008887
AG1647   AG        0.225616    0.576649    0.375079     0.008887
AG1648   AG        0.227291    0.614616    0.408227     0.008887
AG1649   AG        0.261271    0.577539    0.407129     0.008887
AG1650   AG        0.259737    0.613089    0.370621     0.008887
AG1651   AG        0.297244    0.575781    0.372885     0.008887
AG1652   AG        0.297601    0.616090    0.409277     0.008887
AG1653   AG        0.332747    0.580650    0.408333     0.008887
AG1654   AG        0.333844    0.615202    0.369278     0.008887
AG1655   AG        0.369913    0.578458    0.373200     0.008887
AG1656   AG        0.370540    0.612596    0.407383     0.008887
NI1657   NI        0.407716    0.568711    0.419841     0.004307
AG1658   AG        0.406670    0.618202    0.368692     0.008887
AG1659   AG        0.407923    0.578990    0.407097     0.008887
AG1660   AG        0.443094    0.616066    0.410389     0.008887
AG1661   AG        0.479240    0.579895    0.407521     0.008887
NI1662   NI        0.497185    0.614630    0.376194     0.004307
AG1663   AG        0.517294    0.577067    0.372214     0.008887
AG1664   AG        0.515992    0.615876    0.408314     0.008887
AG1665   AG        0.553327    0.575603    0.410404     0.008887
AG1666   AG        0.550272    0.614675    0.370355     0.008887
AG1667   AG        0.586608    0.577675    0.371948     0.008887
AG1668   AG        0.586781    0.615129    0.409499     0.008887
AG1669   AG        0.621880    0.578065    0.409633     0.008887
AG1670   AG        0.620888    0.616468    0.371601     0.008887
AG1671   AG        0.657127    0.576385    0.372901     0.008887
AG1672   AG        0.658995    0.616799    0.405789     0.008887
AG1673   AG        0.694243    0.581306    0.406391     0.008887
AG1674   AG        0.689460    0.613094    0.372259     0.008887
AG1675   AG        0.729657    0.576261    0.373122     0.008887
AG1676   AG        0.723719    0.614184    0.402534     0.008887
NI1677   NI        0.762211    0.574405    0.411232     0.004307
NI1678   NI        0.774683    0.587375    0.369328     0.004307
NI1679   NI        0.806754    0.545822    0.358618     0.004307
NI1680   NI        0.790885    0.607655    0.402227     0.004307
NI1681   NI        0.848464    0.563455    0.431792     0.004307
NI1682   NI        0.083647    0.634030    0.365541     0.004307
NI1683   NI        0.133164    0.658416    0.407614     0.004307
NI1684   NI        0.135096    0.681478    0.366954     0.004307
NI1685   NI        0.156486    0.642678    0.369047     0.004307
NI1686   NI        0.169767    0.684708    0.406543     0.004307
NI1687   NI        0.214135    0.659562    0.411851     0.004307
NI1688   NI        0.203130    0.690358    0.376335     0.004307
AG1689   AG        0.226674    0.646368    0.372741     0.008887
NI1690   NI        0.225470    0.684474    0.407187     0.004307
AG1691   AG        0.261237    0.653471    0.407917     0.008887
AG1692   AG        0.261441    0.685876    0.372997     0.008887
AG1693   AG        0.298016    0.649323    0.373640     0.008887
AG1694   AG        0.298219    0.685442    0.406675     0.008887
AG1695   AG        0.335976    0.650960    0.405507     0.008887
AG1696   AG        0.335189    0.687128    0.373652     0.008887
AG1697   AG        0.371339    0.653159    0.370706     0.008887
AG1698   AG        0.371933    0.688386    0.407490     0.008887
AG1699   AG        0.404947    0.654850    0.409481     0.008887
AG1700   AG        0.407087    0.690168    0.370518     0.008887
AG1701   AG        0.441930    0.654040    0.369283     0.008887
AG1702   AG        0.443873    0.688115    0.405946     0.008887
AG1703   AG        0.477830    0.652428    0.406354     0.008887
AG1704   AG        0.478981    0.688298    0.373268     0.008887
AG1705   AG        0.516082    0.651730    0.368600     0.008887
AG1706   AG        0.514358    0.689925    0.408900     0.008887
AG1707   AG        0.551786    0.650724    0.407839     0.008887
AG1708   AG        0.550727    0.688715    0.371690     0.008887
AG1709   AG        0.588250    0.650671    0.371201     0.008887
AG1710   AG        0.586193    0.688614    0.408743     0.008887
AG1711   AG        0.621619    0.651881    0.408398     0.008887
AG1712   AG        0.618885    0.688276    0.370012     0.008887
AG1713   AG        0.657324    0.651962    0.371850     0.008887
AG1714   AG        0.660776    0.686830    0.409827     0.008887
AG1715   AG        0.695988    0.653090    0.406837     0.008887
NI1716   NI        0.690090    0.692761    0.369972     0.004307
AG1717   AG        0.725236    0.651245    0.370870     0.008887
NI1718   NI        0.730742    0.687910    0.405557     0.004307
NI1719   NI        0.747132    0.652952    0.408840     0.004307
NI1720   NI        0.759343    0.679597    0.364347     0.004307
NI1721   NI        0.776857    0.618792    0.399387     0.004307
NI1722   NI        0.143738    0.717435    0.396807     0.004307
NI1723   NI        0.159985    0.692477    0.356525     0.004307
NI1724   NI        0.170426    0.753304    0.406948     0.004307
NI1725   NI        0.190736    0.721449    0.407235     0.004307
NI1726   NI        0.197316    0.751766    0.370111     0.004307
NI1727   NI        0.230122    0.723226    0.370847     0.004307
AG1728   AG        0.223863    0.758687    0.407115     0.008887
AG1729   AG        0.257937    0.724345    0.410238     0.008887
NI1730   NI        0.260488    0.757248    0.374088     0.004307
AG1731   AG        0.294273    0.723825    0.372438     0.008887
NI1732   NI        0.293117    0.757314    0.411597     0.004307
AG1733   AG        0.335978    0.687993    0.440737     0.008887
NI1734   NI        0.332210    0.759980    0.369865     0.004307
AG1735   AG        0.371138    0.725296    0.367179     0.008887
NI1736   NI        0.366824    0.757855    0.410572     0.004307
AG1737   AG        0.406159    0.726941    0.407679     0.008887
NI1738   NI        0.412351    0.780855    0.340000     0.004307
AG1739   AG        0.442054    0.724182    0.370005     0.008887
AG1740   AG        0.440479    0.758987    0.407982     0.008887
AG1741   AG        0.480877    0.726787    0.408270     0.008887
AG1742   AG        0.478355    0.759803    0.371194     0.008887
AG1743   AG        0.515287    0.723579    0.371437     0.008887
AG1744   AG        0.516696    0.762752    0.408931     0.008887
AG1745   AG        0.549120    0.724518    0.407920     0.008887
AG1746   AG        0.551333    0.763855    0.370300     0.008887
AG1747   AG        0.584525    0.726082    0.372541     0.008887
NI1748   NI        0.578293    0.764501    0.408091     0.004307
NI1749   NI        0.621824    0.715634    0.413156     0.004307
NI1750   NI        0.627052    0.740932    0.373334     0.004307
NI1751   NI        0.655634    0.710451    0.363824     0.004307
NI1752   NI        0.662630    0.739776    0.405085     0.004307
NI1753   NI        0.699648    0.717735    0.410812     0.004307
NI1754   NI        0.698600    0.733853    0.367067     0.004307
NI1755   NI        0.729521    0.719221    0.369612     0.004307
NI1756   NI        0.733542    0.749774    0.400491     0.004307
NI1757   NI        0.766526    0.718401    0.409834     0.004307
NI1758   NI        0.230670    0.785429    0.365352     0.004307
NI1759   NI        0.263772    0.796283    0.404229     0.004307
NI1760   NI        0.307933    0.766930    0.370048     0.004307
NI1761   NI        0.297094    0.829410    0.410809     0.004307
NI1762   NI        0.327619    0.780558    0.406823     0.004307
NI1763   NI        0.327702    0.808121    0.371239     0.004307
NI1764   NI        0.369397    0.789882    0.365647     0.004307
NI1765   NI        0.368150    0.807976    0.403182     0.004307
NI1766   NI        0.405614    0.790243    0.414439     0.004307
NI1767   NI        0.406749    0.812949    0.375338     0.004307
AG1768   AG        0.447058    0.794789    0.369222     0.008887
NI1769   NI        0.446028    0.808793    0.409701     0.004307
NI1770   NI        0.477143    0.790869    0.409223     0.004307
NI1771   NI        0.483848    0.827431    0.379840     0.004307
NI1772   NI        0.513018    0.794843    0.369888     0.004307
NI1773   NI        0.503360    0.816730    0.410642     0.004307
NI1774   NI        0.546636    0.800445    0.406010     0.004307
NI1775   NI        0.536304    0.832290    0.374999     0.004307
NI1776   NI        0.582338    0.795709    0.370905     0.004307
NI1777   NI        0.600130    0.801264    0.410472     0.004307
NI1778   NI        0.629087    0.766406    0.409570     0.004307
NI1779   NI        0.666591    0.764611    0.360857     0.004307
NI1780   NI        0.402722    0.834520    0.411215     0.004307
NI1781   NI        0.439720    0.842157    0.382040     0.004307
NI1782   NI        0.472084    0.872551    0.405711     0.004307
NI1783   NI        0.255193    0.063004    0.440287     0.004307
NI1784   NI        0.292163    0.060470    0.483503     0.004307
NI1785   NI        0.331947    0.036339    0.450902     0.004307
NI1786   NI        0.363267    0.006002    0.430684     0.004307
NI1787   NI        0.367920    0.032301    0.472961     0.004307
NI1788   NI        0.415894    0.019478    0.488515     0.004307
AG1789   AG        0.405572    0.054857    0.455357     0.008887
NI1790   NI        0.443316    0.032500    0.455285     0.004307
AG1791   AG        0.442790    0.063898    0.486626     0.008887
NI1792   NI        0.474961    0.000714    0.452746     0.004307
NI1793   NI        0.480745    0.049572    0.444836     0.004307
NI1794   NI        0.513707    0.065300    0.452534     0.004307
NI1795   NI        0.474387    0.071458    0.472319     0.004307
NI1796   NI        0.557861    0.054786    0.449826     0.004307
NI1797   NI        0.590908    0.054682    0.480829     0.004307
NI1798   NI        0.626422    0.060879    0.453063     0.004307
NI1799   NI        0.144984    0.127541    0.473781     0.004307
NI1800   NI        0.181836    0.110314    0.454663     0.004307
NI1801   NI        0.224479    0.124861    0.477586     0.004307
NI1802   NI        0.184952    0.145430    0.479093     0.004307
NI1803   NI        0.252428    0.086829    0.483647     0.004307
NI1804   NI        0.257554    0.125779    0.448506     0.004307
NI1805   NI        0.291696    0.091086    0.449609     0.004307
NI1806   NI        0.298745    0.112323    0.480963     0.004307
NI1807   NI        0.335398    0.077858    0.480338     0.004307
AG1808   AG        0.331904    0.104720    0.445308     0.008887
NI1809   NI        0.372012    0.054980    0.486628     0.004307
AG1810   AG        0.367444    0.109137    0.479542     0.008887
AG1811   AG        0.406467    0.086593    0.485790     0.008887
AG1812   AG        0.407020    0.104281    0.442340     0.008887
AG1813   AG        0.443396    0.078913    0.444810     0.008887
AG1814   AG        0.442663    0.108535    0.481172     0.008887
AG1815   AG        0.480438    0.085901    0.481233     0.008887
AG1816   AG        0.477763    0.107700    0.443389     0.008887
AG1817   AG        0.514863    0.079777    0.448039     0.008887
AG1818   AG        0.516060    0.110700    0.480522     0.008887
NI1819   NI        0.546344    0.082321    0.478799     0.004307
AG1820   AG        0.550806    0.106230    0.444911     0.008887
NI1821   NI        0.589219    0.086971    0.448958     0.004307
AG1822   AG        0.583410    0.115552    0.479038     0.008887
NI1823   NI        0.623452    0.094418    0.486765     0.004307
NI1824   NI        0.628390    0.105892    0.443136     0.004307
NI1825   NI        0.661776    0.067243    0.484215     0.004307
NI1826   NI        0.622367    0.088115    0.475585     0.004307
NI1827   NI        0.708104    0.103226    0.413898     0.004307
NI1828   NI        0.729479    0.122526    0.477567     0.004307
NI1829   NI        0.106936    0.146597    0.488692     0.004307
NI1830   NI        0.114146    0.178218    0.447172     0.004307
NI1831   NI        0.182875    0.129505    0.439441     0.004307
NI1832   NI        0.147652    0.177314    0.478329     0.004307
NI1833   NI        0.185326    0.154639    0.478607     0.004307
AG1834   AG        0.186841    0.178971    0.441649     0.008887
NI1835   NI        0.223207    0.143953    0.443082     0.004307
NI1836   NI        0.220275    0.179449    0.477155     0.004307
NI1837   NI        0.294042    0.178429    0.483859     0.004307
AG1838   AG        0.265909    0.173333    0.445563     0.008887
AG1839   AG        0.298006    0.139343    0.440441     0.008887
AG1840   AG        0.301288    0.175268    0.480096     0.008887
AG1841   AG        0.333967    0.141587    0.479954     0.008887
AG1842   AG        0.331486    0.174763    0.442242     0.008887
AG1843   AG        0.368275    0.138239    0.443383     0.008887
AG1844   AG        0.372529    0.176532    0.481468     0.008887
AG1845   AG        0.404683    0.140890    0.478631     0.008887
AG1846   AG        0.407456    0.177846    0.444952     0.008887
AG1847   AG        0.443677    0.139739    0.444896     0.008887
AG1848   AG        0.443360    0.175926    0.479647     0.008887
AG1849   AG        0.479174    0.140848    0.477253     0.008887
AG1850   AG        0.478256    0.175103    0.444402     0.008887
AG1851   AG        0.515395    0.144000    0.445263     0.008887
AG1852   AG        0.513431    0.175673    0.482414     0.008887
AG1853   AG        0.550040    0.144365    0.480538     0.008887
AG1854   AG        0.550239    0.176913    0.443967     0.008887
AG1855   AG        0.586046    0.142858    0.445119     0.008887
NI1856   NI        0.586337    0.177481    0.481960     0.004307
NI1857   NI        0.624548    0.142847    0.479970     0.004307
AG1858   AG        0.625576    0.177678    0.442535     0.008887
AG1859   AG        0.662476    0.142456    0.440953     0.008887
AG1860   AG        0.659191    0.175998    0.478704     0.008887
NI1861   NI        0.701409    0.154515    0.479107     0.004307
AG1862   AG        0.694599    0.175058    0.443313     0.008887
NI1863   NI        0.722318    0.139627    0.441730     0.004307
NI1864   NI        0.700695    0.199363    0.451855     0.004307
NI1865   NI        0.744551    0.141647    0.486318     0.004307
NI1866   NI        0.741587    0.178080    0.451292     0.004307
NI1867   NI        0.096908    0.244934    0.398384     0.004307
NI1868   NI        0.081816    0.198559    0.470051     0.004307
NI1869   NI        0.106484    0.246995    0.475840     0.004307
NI1870   NI        0.121686    0.211410    0.481302     0.004307
NI1871   NI        0.136456    0.252994    0.439820     0.004307
AG1872   AG        0.153485    0.208060    0.442079     0.008887
AG1873   AG        0.155154    0.247825    0.480369     0.008887
AG1874   AG        0.184863    0.210489    0.479615     0.008887
NI1875   NI        0.191520    0.283745    0.410981     0.004307
NI1876   NI        0.223837    0.209034    0.443679     0.004307
AG1877   AG        0.219948    0.247186    0.479695     0.008887
AG1878   AG        0.261184    0.208939    0.482526     0.008887
AG1879   AG        0.258165    0.248004    0.440679     0.008887
AG1880   AG        0.296594    0.210848    0.445702     0.008887
AG1881   AG        0.295855    0.247727    0.480426     0.008887
AG1882   AG        0.333351    0.213571    0.477341     0.008887
AG1883   AG        0.332658    0.251361    0.442577     0.008887
AG1884   AG        0.370407    0.214411    0.444415     0.008887
AG1885   AG        0.370300    0.248043    0.479351     0.008887
AG1886   AG        0.405290    0.212713    0.480847     0.008887
AG1887   AG        0.407871    0.249759    0.445228     0.008887
AG1888   AG        0.442358    0.214096    0.446021     0.008887
AG1889   AG        0.442121    0.248867    0.483833     0.008887
AG1890   AG        0.477585    0.212159    0.481817     0.008887
AG1891   AG        0.480188    0.250515    0.445826     0.008887
AG1892   AG        0.516544    0.211991    0.444480     0.008887
AG1893   AG        0.513501    0.249808    0.482240     0.008887
AG1894   AG        0.550989    0.215142    0.480148     0.008887
NI1895   NI        0.545712    0.251123    0.451901     0.004307
AG1896   AG        0.550106    0.250677    0.443614     0.008887
AG1897   AG        0.590588    0.247531    0.480014     0.008887
AG1898   AG        0.626752    0.213830    0.479019     0.008887
AG1899   AG        0.625802    0.251540    0.443057     0.008887
AG1900   AG        0.658312    0.214675    0.441076     0.008887
AG1901   AG        0.660131    0.253036    0.479875     0.008887
AG1902   AG        0.696968    0.210092    0.478995     0.008887
AG1903   AG        0.694068    0.251094    0.441807     0.008887
AG1904   AG        0.722248    0.215017    0.441208     0.008887
AG1905   AG        0.722426    0.253481    0.483184     0.008887
NI1906   NI        0.743762    0.210654    0.481690     0.004307
NI1907   NI        0.753044    0.251201    0.447449     0.004307
NI1908   NI        0.796771    0.235333    0.446680     0.004307
NI1909   NI        0.781457    0.244700    0.483501     0.004307
NI1910   NI        0.831052    0.258152    0.428034     0.004307
NI1911   NI        0.062600    0.301500    0.500375     0.004307
NI1912   NI        0.063695    0.313149    0.448156     0.004307
NI1913   NI        0.107241    0.287586    0.441723     0.004307
NI1914   NI        0.097045    0.320697    0.478145     0.004307
NI1915   NI        0.134208    0.285082    0.480320     0.004307
AG1916   AG        0.124079    0.327411    0.438936     0.008887
AG1917   AG        0.155082    0.290823    0.441837     0.008887
AG1918   AG        0.152954    0.323848    0.479482     0.008887
AG1919   AG        0.187178    0.287192    0.480370     0.008887
AG1920   AG        0.188655    0.324280    0.442572     0.008887
AG1921   AG        0.222639    0.283159    0.444545     0.008887
AG1922   AG        0.225080    0.322206    0.478846     0.008887
NI1923   NI        0.278382    0.313046    0.481742     0.004307
AG1924   AG        0.261343    0.322494    0.441472     0.008887
AG1925   AG        0.297429    0.290588    0.442864     0.008887
AG1926   AG        0.300901    0.320871    0.477473     0.008887
AG1927   AG        0.332647    0.283693    0.481160     0.008887
AG1928   AG        0.336450    0.321186    0.441492     0.008887
AG1929   AG        0.371984    0.285405    0.442803     0.008887
AG1930   AG        0.371080    0.324102    0.477784     0.008887
AG1931   AG        0.408077    0.285824    0.478610     0.008887
AG1932   AG        0.407562    0.324108    0.444982     0.008887
AG1933   AG        0.443571    0.285473    0.445355     0.008887
AG1934   AG        0.441341    0.323626    0.481474     0.008887
AG1935   AG        0.477402    0.287107    0.484030     0.008887
AG1936   AG        0.475580    0.321064    0.445541     0.008887
AG1937   AG        0.514854    0.286510    0.444439     0.008887
AG1938   AG        0.513756    0.324163    0.482602     0.008887
AG1939   AG        0.548605    0.291887    0.480795     0.008887
AG1940   AG        0.551808    0.325691    0.443162     0.008887
AG1941   AG        0.585551    0.284606    0.444914     0.008887
AG1942   AG        0.588360    0.323461    0.478899     0.008887
AG1943   AG        0.622605    0.286345    0.478307     0.008887
AG1944   AG        0.624379    0.322207    0.443317     0.008887
AG1945   AG        0.660914    0.288416    0.443663     0.008887
AG1946   AG        0.662684    0.320593    0.480415     0.008887
AG1947   AG        0.694950    0.289015    0.477905     0.008887
AG1948   AG        0.695571    0.323701    0.443547     0.008887
AG1949   AG        0.729632    0.287473    0.443920     0.008887
AG1950   AG        0.731528    0.322618    0.479688     0.008887
NI1951   NI        0.753482    0.284578    0.482991     0.004307
AG1952   AG        0.764212    0.322806    0.444761     0.008887
NI1953   NI        0.792246    0.280454    0.453052     0.004307
NI1954   NI        0.782166    0.317308    0.473467     0.004307
NI1955   NI        0.833023    0.288472    0.460792     0.004307
NI1956   NI        0.814885    0.324331    0.446928     0.004307
NI1957   NI        0.038575    0.351755    0.447017     0.004307
NI1958   NI        0.039098    0.382102    0.482737     0.004307
NI1959   NI        0.067987    0.347070    0.480705     0.004307
NI1960   NI        0.052944    0.402680    0.442508     0.004307
NI1961   NI        0.086670    0.362871    0.441493     0.004307
NI1962   NI        0.086099    0.397629    0.477392     0.004307
AG1963   AG        0.118249    0.359874    0.479520     0.008887
AG1964   AG        0.116067    0.397452    0.439520     0.008887
AG1965   AG        0.152991    0.361557    0.443389     0.008887
AG1966   AG        0.151851    0.396854    0.480886     0.008887
AG1967   AG        0.185917    0.358897    0.479668     0.008887
AG1968   AG        0.186983    0.394871    0.442661     0.008887
AG1969   AG        0.224509    0.358722    0.443354     0.008887
AG1970   AG        0.222019    0.396480    0.478581     0.008887
AG1971   AG        0.263854    0.356263    0.478976     0.008887
AG1972   AG        0.263702    0.394713    0.443497     0.008887
AG1973   AG        0.299009    0.356568    0.444845     0.008887
AG1974   AG        0.299199    0.397140    0.478031     0.008887
AG1975   AG        0.334913    0.359360    0.478476     0.008887
AG1976   AG        0.333354    0.396688    0.444413     0.008887
AG1977   AG        0.372702    0.358377    0.444048     0.008887
AG1978   AG        0.370233    0.396604    0.481778     0.008887
AG1979   AG        0.406218    0.358556    0.479975     0.008887
AG1980   AG        0.408793    0.397105    0.444940     0.008887
AG1981   AG        0.441212    0.358300    0.443284     0.008887
AG1982   AG        0.443526    0.395276    0.479720     0.008887
AG1983   AG        0.476019    0.359209    0.481657     0.008887
AG1984   AG        0.477140    0.394178    0.444660     0.008887
AG1985   AG        0.514465    0.361310    0.445986     0.008887
AG1986   AG        0.515200    0.393405    0.483359     0.008887
NI1987   NI        0.550459    0.358345    0.474955     0.004307
AG1988   AG        0.550888    0.360512    0.486490     0.008887
AG1989   AG        0.585926    0.357490    0.443988     0.008887
AG1990   AG        0.587903    0.394464    0.480684     0.008887
AG1991   AG        0.627286    0.359570    0.481600     0.008887
AG1992   AG        0.624346    0.396630    0.443641     0.008887
AG1993   AG        0.663394    0.359249    0.443000     0.008887
AG1994   AG        0.663478    0.395536    0.482099     0.008887
AG1995   AG        0.695643    0.359492    0.481103     0.008887
AG1996   AG        0.699429    0.393431    0.444033     0.008887
AG1997   AG        0.732058    0.358903    0.442233     0.008887
AG1998   AG        0.733320    0.394093    0.479890     0.008887
AG1999   AG        0.766003    0.355915    0.484119     0.008887
NI2000   NI        0.742191    0.439949    0.440125     0.004307
NI2001   NI        0.787403    0.359184    0.444539     0.004307
NI2002   NI        0.784297    0.396453    0.484548     0.004307
NI2003   NI        0.815474    0.359358    0.477813     0.004307
NI2004   NI        0.814413    0.396073    0.453464     0.004307
NI2005   NI        0.883832    0.391304    0.410132     0.004307
NI2006   NI        0.842438    0.390717    0.494185     0.004307
NI2007   NI        0.016392    0.434857    0.444837     0.004307
NI2008   NI        0.006823    0.458261    0.482970     0.004307
NI2009   NI        0.045282    0.426918    0.477020     0.004307
NI2010   NI        0.047555    0.465328    0.441416     0.004307
NI2011   NI        0.080924    0.434517    0.442454     0.004307
NI2012   NI        0.081115    0.470120    0.479891     0.004307
AG2013   AG        0.117648    0.434295    0.480404     0.008887
AG2014   AG        0.115202    0.470297    0.442000     0.008887
AG2015   AG        0.149061    0.432720    0.442696     0.008887
AG2016   AG        0.150652    0.467057    0.479755     0.008887
AG2017   AG        0.186260    0.431209    0.476221     0.008887
AG2018   AG        0.187316    0.468882    0.446016     0.008887
AG2019   AG        0.224001    0.433188    0.445450     0.008887
AG2020   AG        0.225220    0.470221    0.478804     0.008887
AG2021   AG        0.261401    0.433128    0.480374     0.008887
AG2022   AG        0.259340    0.467338    0.442595     0.008887
AG2023   AG        0.299454    0.432014    0.441880     0.008887
AG2024   AG        0.298036    0.469011    0.476018     0.008887
AG2025   AG        0.335457    0.432456    0.481075     0.008887
AG2026   AG        0.334544    0.466871    0.442951     0.008887
AG2027   AG        0.372873    0.434259    0.443752     0.008887
AG2028   AG        0.371103    0.466400    0.480232     0.008887
AG2029   AG        0.407737    0.431969    0.481514     0.008887
AG2030   AG        0.407474    0.465313    0.443531     0.008887
AG2031   AG        0.441839    0.432769    0.446575     0.008887
AG2032   AG        0.444555    0.467488    0.481620     0.008887
AG2033   AG        0.476957    0.433262    0.481498     0.008887
AG2034   AG        0.477218    0.470376    0.442399     0.008887
AG2035   AG        0.512959    0.430898    0.445092     0.008887
AG2036   AG        0.514147    0.467319    0.481735     0.008887
AG2037   AG        0.548603    0.431877    0.480645     0.008887
AG2038   AG        0.550716    0.467772    0.445482     0.008887
AG2039   AG        0.588169    0.433784    0.447677     0.008887
AG2040   AG        0.587660    0.471507    0.482077     0.008887
AG2041   AG        0.622676    0.432928    0.480778     0.008887
AG2042   AG        0.623936    0.469278    0.446261     0.008887
AG2043   AG        0.662050    0.432072    0.446844     0.008887
AG2044   AG        0.662680    0.469971    0.479634     0.008887
AG2045   AG        0.699190    0.433517    0.480723     0.008887
AG2046   AG        0.698262    0.470879    0.444794     0.008887
NI2047   NI        0.731001    0.431628    0.445023     0.004307
AG2048   AG        0.736306    0.470412    0.481425     0.008887
AG2049   AG        0.765758    0.435610    0.481849     0.008887
AG2050   AG        0.772196    0.470346    0.446967     0.008887
AG2051   AG        0.791930    0.431886    0.448312     0.008887
AG2052   AG        0.800417    0.470500    0.481151     0.008887
NI2053   NI        0.811524    0.427132    0.489477     0.004307
NI2054   NI        0.825132    0.463545    0.441080     0.004307
NI2055   NI        0.880210    0.428673    0.439862     0.004307
NI2056   NI        0.850991    0.427112    0.471644     0.004307
NI2057   NI        0.029172    0.511867    0.447844     0.004307
NI2058   NI        0.057359    0.515678    0.483477     0.004307
NI2059   NI        0.064887    0.536856    0.446827     0.004307
AG2060   AG        0.078562    0.506660    0.443820     0.008887
NI2061   NI        0.093613    0.540412    0.483317     0.004307
AG2062   AG        0.117532    0.505800    0.477607     0.008887
AG2063   AG        0.116190    0.538367    0.439657     0.008887
AG2064   AG        0.150954    0.505012    0.443893     0.008887
AG2065   AG        0.149953    0.537357    0.480052     0.008887
AG2066   AG        0.187884    0.503353    0.480436     0.008887
AG2067   AG        0.189933    0.539657    0.444686     0.008887
AG2068   AG        0.226972    0.506365    0.443798     0.008887
AG2069   AG        0.223774    0.540994    0.482962     0.008887
AG2070   AG        0.262327    0.505484    0.478156     0.008887
AG2071   AG        0.262392    0.541068    0.443670     0.008887
AG2072   AG        0.297730    0.502924    0.440820     0.008887
AG2073   AG        0.298401    0.540227    0.479820     0.008887
AG2074   AG        0.333276    0.503999    0.480710     0.008887
AG2075   AG        0.333210    0.539048    0.443661     0.008887
AG2076   AG        0.372934    0.503418    0.445491     0.008887
AG2077   AG        0.367969    0.540801    0.480706     0.008887
AG2078   AG        0.406163    0.507059    0.481775     0.008887
AG2079   AG        0.407593    0.541994    0.443870     0.008887
AG2080   AG        0.441373    0.505673    0.445628     0.008887
AG2081   AG        0.443497    0.541862    0.483480     0.008887
AG2082   AG        0.477397    0.507724    0.481575     0.008887
AG2083   AG        0.478019    0.543834    0.445969     0.008887
AG2084   AG        0.512586    0.507262    0.446332     0.008887
AG2085   AG        0.514089    0.545597    0.479399     0.008887
AG2086   AG        0.548709    0.505636    0.481593     0.008887
AG2087   AG        0.544968    0.537452    0.441643     0.008887
AG2088   AG        0.585620    0.504854    0.446292     0.008887
AG2089   AG        0.552275    0.544407    0.448703     0.008887
AG2090   AG        0.623531    0.505610    0.480714     0.008887
AG2091   AG        0.626191    0.540988    0.443832     0.008887
AG2092   AG        0.661443    0.506910    0.446349     0.008887
AG2093   AG        0.660887    0.541859    0.480076     0.008887
AG2094   AG        0.700721    0.504734    0.479854     0.008887
AG2095   AG        0.696601    0.542670    0.441710     0.008887
AG2096   AG        0.734646    0.507024    0.443471     0.008887
AG2097   AG        0.736298    0.540607    0.479310     0.008887
AG2098   AG        0.771396    0.505589    0.480238     0.008887
AG2099   AG        0.769402    0.541520    0.442869     0.008887
AG2100   AG        0.805851    0.505030    0.443441     0.008887
NI2101   NI        0.805131    0.538451    0.480986     0.004307
NI2102   NI        0.842729    0.506578    0.475090     0.004307
NI2103   NI        0.816573    0.546724    0.461131     0.004307
NI2104   NI        0.848274    0.498330    0.435251     0.004307
NI2105   NI        0.039534    0.545535    0.482312     0.004307
NI2106   NI        0.108634    0.637275    0.440935     0.004307
NI2107   NI        0.092357    0.582643    0.441640     0.004307
NI2108   NI        0.119923    0.581272    0.481184     0.004307
NI2109   NI        0.119502    0.567884    0.473951     0.004307
NI2110   NI        0.145231    0.613217    0.406373     0.004307
NI2111   NI        0.156231    0.570096    0.444163     0.004307
AG2112   AG        0.157235    0.617372    0.482596     0.008887
AG2113   AG        0.188523    0.577204    0.483379     0.008887
AG2114   AG        0.187882    0.611343    0.447038     0.008887
AG2115   AG        0.223409    0.578894    0.447163     0.008887
AG2116   AG        0.222710    0.613549    0.481590     0.008887
AG2117   AG        0.260404    0.576625    0.482819     0.008887
AG2118   AG        0.262664    0.612855    0.446277     0.008887
NI2119   NI        0.341560    0.573946    0.405453     0.004307
AG2120   AG        0.298580    0.614393    0.481375     0.008887
AG2121   AG        0.334393    0.579512    0.481843     0.008887
AG2122   AG        0.334142    0.614293    0.442752     0.008887
AG2123   AG        0.369482    0.577203    0.445258     0.008887
AG2124   AG        0.368547    0.612974    0.482235     0.008887
AG2125   AG        0.404930    0.575209    0.480524     0.008887
AG2126   AG        0.406323    0.612500    0.444235     0.008887
AG2127   AG        0.443887    0.581080    0.442701     0.008887
AG2128   AG        0.441192    0.612787    0.481014     0.008887
AG2129   AG        0.480775    0.578941    0.481043     0.008887
AG2130   AG        0.477976    0.615078    0.443569     0.008887
AG2131   AG        0.515963    0.577298    0.445844     0.008887
AG2132   AG        0.515907    0.614562    0.479316     0.008887
AG2133   AG        0.550462    0.579676    0.480500     0.008887
AG2134   AG        0.551433    0.615325    0.443680     0.008887
AG2135   AG        0.588289    0.579821    0.441577     0.008887
AG2136   AG        0.587244    0.614322    0.480818     0.008887
AG2137   AG        0.625128    0.579295    0.483373     0.008887
AG2138   AG        0.622099    0.615496    0.445011     0.008887
AG2139   AG        0.659323    0.580673    0.447296     0.008887
AG2140   AG        0.663270    0.615504    0.481351     0.008887
NI2141   NI        0.703545    0.574327    0.479151     0.004307
AG2142   AG        0.693728    0.614682    0.441214     0.008887
NI2143   NI        0.692652    0.581827    0.482184     0.004307
AG2144   AG        0.729004    0.613163    0.480141     0.008887
NI2145   NI        0.772956    0.572443    0.484438     0.004307
NI2146   NI        0.756416    0.619224    0.438260     0.004307
NI2147   NI        0.776940    0.543830    0.447183     0.004307
NI2148   NI        0.779424    0.621762    0.476026     0.004307
NI2149   NI        0.844633    0.567224    0.486966     0.004307
NI2150   NI        0.821840    0.632105    0.459819     0.004307
NI2151   NI        0.098452    0.679559    0.421359     0.004307
NI2152   NI        0.110613    0.646806    0.481629     0.004307
NI2153   NI        0.140701    0.693481    0.440617     0.004307
NI2154   NI        0.151290    0.649592    0.448253     0.004307
NI2155   NI        0.147738    0.686268    0.482391     0.004307
AG2156   AG        0.190342    0.647250    0.481123     0.008887
AG2157   AG        0.189940    0.682857    0.444858     0.008887
AG2158   AG        0.224518    0.648045    0.445661     0.008887
AG2159   AG        0.225164    0.682487    0.478014     0.008887
AG2160   AG        0.260034    0.647355    0.478529     0.008887
NI2161   NI        0.257737    0.682623    0.441147     0.004307
AG2162   AG        0.298473    0.650296    0.445185     0.008887
AG2163   AG        0.299207    0.682752    0.477591     0.008887
AG2164   AG        0.336574    0.651411    0.479096     0.008887
NI2165   NI        0.333984    0.717418    0.472142     0.004307
AG2166   AG        0.371681    0.649903    0.443804     0.008887
AG2167   AG        0.371418    0.688191    0.477805     0.008887
AG2168   AG        0.402585    0.650453    0.481167     0.008887
AG2169   AG        0.406122    0.688705    0.445202     0.008887
NI2170   NI        0.484863    0.611700    0.447794     0.004307
AG2171   AG        0.444686    0.687305    0.480421     0.008887
AG2172   AG        0.481813    0.650383    0.481962     0.008887
AG2173   AG        0.477736    0.689448    0.444097     0.008887
AG2174   AG        0.512677    0.651988    0.444812     0.008887
AG2175   AG        0.513755    0.689273    0.479129     0.008887
NI2176   NI        0.577233    0.624923    0.478236     0.004307
AG2177   AG        0.550129    0.692798    0.442851     0.008887
AG2178   AG        0.588902    0.652180    0.444569     0.008887
AG2179   AG        0.589796    0.690862    0.478978     0.008887
AG2180   AG        0.622149    0.652917    0.480674     0.008887
AG2181   AG        0.622004    0.685517    0.442818     0.008887
NI2182   NI        0.659255    0.649354    0.445547     0.004307
AG2183   AG        0.661291    0.687858    0.480549     0.008887
AG2184   AG        0.697640    0.650176    0.480598     0.008887
AG2185   AG        0.700063    0.684079    0.445273     0.008887
NI2186   NI        0.726156    0.648652    0.446229     0.004307
NI2187   NI        0.726615    0.690128    0.479934     0.004307
NI2188   NI        0.749722    0.579451    0.461414     0.004307
NI2189   NI        0.755416    0.681532    0.442095     0.004307
NI2190   NI        0.790139    0.646286    0.434101     0.004307
NI2191   NI        0.158898    0.675756    0.482281     0.004307
NI2192   NI        0.156971    0.709625    0.439810     0.004307
NI2193   NI        0.138271    0.727552    0.475496     0.004307
NI2194   NI        0.188489    0.716122    0.480757     0.004307
NI2195   NI        0.175944    0.724311    0.437852     0.004307
AG2196   AG        0.221895    0.721065    0.441283     0.008887
NI2197   NI        0.233268    0.725811    0.487402     0.004307
NI2198   NI        0.263628    0.683227    0.507009     0.004307
NI2199   NI        0.254323    0.760018    0.445478     0.004307
NI2200   NI        0.300358    0.725333    0.442592     0.004307
NI2201   NI        0.330964    0.737117    0.502055     0.004307
NI2202   NI        0.335954    0.724869    0.483405     0.004307
AG2203   AG        0.332590    0.760451    0.446090     0.008887
AG2204   AG        0.370229    0.725711    0.445075     0.008887
AG2205   AG        0.367619    0.756673    0.476844     0.008887
AG2206   AG        0.405818    0.725576    0.481690     0.008887
AG2207   AG        0.406843    0.757368    0.442815     0.008887
AG2208   AG        0.443269    0.724409    0.441023     0.008887
AG2209   AG        0.442578    0.757538    0.480043     0.008887
AG2210   AG        0.478056    0.724738    0.480190     0.008887
AG2211   AG        0.479011    0.762020    0.443390     0.008887
AG2212   AG        0.511463    0.725068    0.445208     0.008887
AG2213   AG        0.513420    0.758958    0.482998     0.008887
AG2214   AG        0.551378    0.723957    0.482827     0.008887
AG2215   AG        0.547424    0.759570    0.448443     0.008887
AG2216   AG        0.585525    0.725245    0.443751     0.008887
AG2217   AG        0.585914    0.757525    0.482757     0.008887
AG2218   AG        0.621924    0.722810    0.481614     0.008887
NI2219   NI        0.628334    0.737253    0.438812     0.004307
NI2220   NI        0.667614    0.711541    0.443918     0.004307
NI2221   NI        0.665107    0.743922    0.476859     0.004307
NI2222   NI        0.695315    0.722696    0.477154     0.004307
NI2223   NI        0.684628    0.750596    0.439706     0.004307
NI2224   NI        0.729549    0.726603    0.445534     0.004307
NI2225   NI        0.704174    0.765870    0.481265     0.004307
NI2226   NI        0.742975    0.738182    0.491299     0.004307
NI2227   NI        0.224885    0.797362    0.435963     0.004307
NI2228   NI        0.257283    0.799551    0.473572     0.004307
NI2229   NI        0.256979    0.834014    0.437304     0.004307
NI2230   NI        0.291197    0.795838    0.437201     0.004307
NI2231   NI        0.291620    0.828247    0.465247     0.004307
NI2232   NI        0.337764    0.782949    0.483279     0.004307
NI2233   NI        0.332625    0.818077    0.439119     0.004307
AG2234   AG        0.367658    0.789362    0.443301     0.008887
NI2235   NI        0.367879    0.819397    0.476288     0.004307
NI2236   NI        0.407034    0.777635    0.482278     0.004307
NI2237   NI        0.394625    0.832955    0.446856     0.004307
AG2238   AG        0.442325    0.785206    0.445788     0.008887
NI2239   NI        0.446004    0.808982    0.484601     0.004307
AG2240   AG        0.479373    0.790454    0.482470     0.008887
NI2241   NI        0.478977    0.815247    0.446912     0.004307
AG2242   AG        0.515910    0.793739    0.446712     0.008887
NI2243   NI        0.499383    0.831698    0.480247     0.004307
AG2244   AG        0.551214    0.793603    0.483013     0.008887
NI2245   NI        0.574140    0.801514    0.441049     0.004307
NI2246   NI        0.600768    0.768918    0.444344     0.004307
NI2247   NI        0.599176    0.806721    0.478407     0.004307
NI2248   NI        0.630006    0.773205    0.481058     0.004307
NI2249   NI        0.614397    0.799316    0.402064     0.004307
NI2250   NI        0.626480    0.805601    0.445385     0.004307
NI2251   NI        0.366444    0.838621    0.434774     0.004307
NI2252   NI        0.419305    0.850913    0.479369     0.004307
NI2253   NI        0.438997    0.830547    0.445971     0.004307
NI2254   NI        0.457322    0.834745    0.484586     0.004307
NI2255   NI        0.502910    0.853933    0.436127     0.004307
NI2256   NI        0.332033    0.061925    0.526867     0.004307
NI2257   NI        0.341154    0.025676    0.508683     0.004307
NI2258   NI        0.369063    0.065599    0.554799     0.004307
NI2259   NI        0.412302    0.036466    0.494741     0.004307
NI2260   NI        0.470522    0.068493    0.521871     0.004307
NI2261   NI        0.442386    0.065478    0.558894     0.004307
NI2262   NI        0.480064    0.057438    0.523527     0.004307
NI2263   NI        0.514862    0.087662    0.519420     0.004307
NI2264   NI        0.545343    0.057936    0.512863     0.004307
NI2265   NI        0.563787    0.029040    0.548815     0.004307
NI2266   NI        0.217235    0.143275    0.518661     0.004307
NI2267   NI        0.258438    0.131216    0.527467     0.004307
NI2268   NI        0.292023    0.130560    0.559334     0.004307
NI2269   NI        0.225132    0.098564    0.546879     0.004307
NI2270   NI        0.258430    0.128875    0.505565     0.004307
NI2271   NI        0.288139    0.095243    0.521581     0.004307
NI2272   NI        0.304791    0.102438    0.550025     0.004307
NI2273   NI        0.342445    0.079349    0.547132     0.004307
AG2274   AG        0.333267    0.104674    0.517537     0.008887
AG2275   AG        0.374861    0.090536    0.518629     0.008887
AG2276   AG        0.368813    0.116694    0.553491     0.008887
AG2277   AG        0.406110    0.088666    0.549751     0.008887
NI2278   NI        0.406665    0.120322    0.517538     0.004307
NI2279   NI        0.438963    0.090128    0.520829     0.004307
AG2280   AG        0.440917    0.113178    0.558555     0.008887
NI2281   NI        0.482109    0.093303    0.558927     0.004307
AG2282   AG        0.479595    0.118493    0.516407     0.008887
NI2283   NI        0.508754    0.086042    0.506506     0.004307
NI2284   NI        0.521268    0.106941    0.551997     0.004307
NI2285   NI        0.559164    0.072822    0.559344     0.004307
AG2286   AG        0.551557    0.106204    0.515662     0.008887
NI2287   NI        0.589155    0.086638    0.518056     0.004307
AG2288   AG        0.585299    0.107842    0.554982     0.008887
NI2289   NI        0.624042    0.085024    0.550691     0.004307
NI2290   NI        0.660546    0.148726    0.522638     0.004307
NI2291   NI        0.656328    0.096923    0.516302     0.004307
NI2292   NI        0.658549    0.109423    0.557643     0.004307
NI2293   NI        0.662810    0.113701    0.477980     0.004307
NI2294   NI        0.145776    0.172775    0.502768     0.004307
NI2295   NI        0.153019    0.148850    0.518337     0.004307
NI2296   NI        0.153964    0.184944    0.549069     0.004307
NI2297   NI        0.189725    0.156072    0.551429     0.004307
AG2298   AG        0.185334    0.182442    0.514518     0.008887
NI2299   NI        0.221084    0.158799    0.513026     0.004307
AG2300   AG        0.225340    0.181469    0.548528     0.008887
NI2301   NI        0.263765    0.152354    0.557673     0.004307
AG2302   AG        0.262717    0.175448    0.518037     0.008887
AG2303   AG        0.298037    0.139858    0.518534     0.008887
AG2304   AG        0.300892    0.179464    0.552858     0.008887
AG2305   AG        0.332969    0.141343    0.550585     0.008887
AG2306   AG        0.331896    0.178051    0.513933     0.008887
AG2307   AG        0.369048    0.141395    0.514957     0.008887
NI2308   NI        0.351167    0.197704    0.551523     0.004307
AG2309   AG        0.405343    0.141228    0.553978     0.008887
AG2310   AG        0.406055    0.174306    0.518497     0.008887
AG2311   AG        0.442836    0.142839    0.516938     0.008887
AG2312   AG        0.442109    0.173940    0.554446     0.008887
AG2313   AG        0.476346    0.140851    0.553697     0.008887
AG2314   AG        0.480786    0.172533    0.517635     0.008887
AG2315   AG        0.517430    0.138855    0.516405     0.008887
AG2316   AG        0.513994    0.177917    0.556545     0.008887
AG2317   AG        0.553388    0.141332    0.555452     0.008887
AG2318   AG        0.551159    0.178361    0.519557     0.008887
AG2319   AG        0.586521    0.141807    0.519596     0.008887
AG2320   AG        0.587654    0.176021    0.554926     0.008887
AG2321   AG        0.622440    0.140459    0.551653     0.008887
AG2322   AG        0.622421    0.177479    0.514908     0.008887
NI2323   NI        0.661826    0.142762    0.516152     0.004307
AG2324   AG        0.656570    0.180738    0.552893     0.008887
NI2325   NI        0.693874    0.154670    0.561176     0.004307
AG2326   AG        0.689917    0.180783    0.516514     0.008887
NI2327   NI        0.711249    0.139262    0.519688     0.004307
NI2328   NI        0.714898    0.173046    0.553906     0.004307
NI2329   NI        0.736716    0.176097    0.518427     0.004307
NI2330   NI        0.088114    0.222903    0.507316     0.004307
NI2331   NI        0.091261    0.251054    0.549218     0.004307
NI2332   NI        0.122594    0.219752    0.548728     0.004307
NI2333   NI        0.124203    0.252328    0.517264     0.004307
AG2334   AG        0.151497    0.214544    0.513263     0.008887
AG2335   AG        0.154858    0.250707    0.553238     0.008887
AG2336   AG        0.189487    0.216856    0.547501     0.008887
AG2337   AG        0.186338    0.247185    0.515266     0.008887
AG2338   AG        0.225605    0.213341    0.519658     0.008887
AG2339   AG        0.228170    0.250653    0.552621     0.008887
AG2340   AG        0.261586    0.209967    0.553688     0.008887
AG2341   AG        0.261773    0.247408    0.515189     0.008887
AG2342   AG        0.297247    0.211130    0.516385     0.008887
AG2343   AG        0.296545    0.249456    0.551012     0.008887
AG2344   AG        0.330866    0.212888    0.553093     0.008887
AG2345   AG        0.330806    0.247659    0.515007     0.008887
AG2346   AG        0.370932    0.213042    0.516388     0.008887
AG2347   AG        0.367151    0.246124    0.552487     0.008887
AG2348   AG        0.406010    0.212652    0.554417     0.008887
AG2349   AG        0.407425    0.247031    0.516275     0.008887
AG2350   AG        0.442195    0.214371    0.517592     0.008887
AG2351   AG        0.441994    0.248461    0.555603     0.008887
AG2352   AG        0.475481    0.211813    0.555050     0.008887
AG2353   AG        0.476801    0.248159    0.520076     0.008887
AG2354   AG        0.513856    0.213508    0.516885     0.008887
AG2355   AG        0.512637    0.249184    0.554042     0.008887
AG2356   AG        0.551265    0.214847    0.553854     0.008887
NI2357   NI        0.575608    0.255026    0.484190     0.004307
AG2358   AG        0.588938    0.213746    0.516086     0.008887
AG2359   AG        0.586600    0.250740    0.553907     0.008887
AG2360   AG        0.620590    0.216753    0.552945     0.008887
AG2361   AG        0.623914    0.249645    0.518623     0.008887
AG2362   AG        0.658701    0.215179    0.517104     0.008887
AG2363   AG        0.657723    0.251989    0.553070     0.008887
AG2364   AG        0.693289    0.213780    0.552964     0.008887
AG2365   AG        0.693615    0.251533    0.518538     0.008887
AG2366   AG        0.717902    0.216328    0.518602     0.008887
AG2367   AG        0.728828    0.251253    0.554314     0.008887
NI2368   NI        0.746138    0.210921    0.552702     0.004307
NI2369   NI        0.755686    0.249069    0.520109     0.004307
NI2370   NI        0.788643    0.283798    0.513413     0.004307
NI2371   NI        0.771678    0.243318    0.560111     0.004307
NI2372   NI        0.074403    0.291554    0.546998     0.004307
NI2373   NI        0.073622    0.322589    0.515340     0.004307
NI2374   NI        0.043459    0.299855    0.541885     0.004307
NI2375   NI        0.098223    0.325216    0.558265     0.004307
NI2376   NI        0.121789    0.286914    0.553690     0.004307
NI2377   NI        0.124086    0.325543    0.516717     0.004307
AG2378   AG        0.154673    0.287493    0.517575     0.008887
AG2379   AG        0.155492    0.322380    0.554543     0.008887
AG2380   AG        0.190951    0.283954    0.549680     0.008887
AG2381   AG        0.187323    0.321942    0.518446     0.008887
AG2382   AG        0.223621    0.283132    0.515739     0.008887
AG2383   AG        0.225359    0.321554    0.552712     0.008887
AG2384   AG        0.262394    0.285405    0.550460     0.008887
AG2385   AG        0.261361    0.323950    0.518087     0.008887
AG2386   AG        0.295477    0.284809    0.515188     0.008887
AG2387   AG        0.297739    0.321339    0.553938     0.008887
AG2388   AG        0.332573    0.281879    0.553502     0.008887
AG2389   AG        0.336159    0.319794    0.516915     0.008887
AG2390   AG        0.372576    0.326308    0.555450     0.008887
NI2391   NI        0.368395    0.316851    0.553874     0.004307
AG2392   AG        0.406352    0.288070    0.558526     0.008887
AG2393   AG        0.405127    0.324444    0.518377     0.008887
AG2394   AG        0.443070    0.286421    0.520578     0.008887
AG2395   AG        0.442836    0.323969    0.557077     0.008887
AG2396   AG        0.478488    0.288496    0.553450     0.008887
AG2397   AG        0.477424    0.324781    0.519590     0.008887
AG2398   AG        0.513485    0.287721    0.517845     0.008887
AG2399   AG        0.514758    0.321404    0.553097     0.008887
AG2400   AG        0.550665    0.289451    0.556250     0.008887
AG2401   AG        0.550924    0.324304    0.517473     0.008887
AG2402   AG        0.587889    0.285685    0.517117     0.008887
AG2403   AG        0.586815    0.323567    0.556396     0.008887
AG2404   AG        0.623904    0.288623    0.552929     0.008887
AG2405   AG        0.625706    0.323681    0.516828     0.008887
AG2406   AG        0.661559    0.288261    0.517988     0.008887
AG2407   AG        0.661113    0.323112    0.553987     0.008887
AG2408   AG        0.695183    0.287390    0.554275     0.008887
NI2409   NI        0.696106    0.294810    0.487849     0.004307
AG2410   AG        0.725821    0.285375    0.519012     0.008887
AG2411   AG        0.730944    0.320487    0.556346     0.008887
AG2412   AG        0.759412    0.284821    0.549594     0.008887
AG2413   AG        0.754566    0.320351    0.516728     0.008887
NI2414   NI        0.790056    0.316189    0.485417     0.004307
NI2415   NI        0.776358    0.319606    0.563952     0.004307
NI2416   NI        0.844224    0.320959    0.540687     0.004307
NI2417   NI        0.831416    0.320733    0.493291     0.004307
NI2418   NI        0.075021    0.356353    0.550357     0.004307
NI2419   NI        0.051742    0.399694    0.524987     0.004307
NI2420   NI        0.086511    0.371133    0.510877     0.004307
AG2421   AG        0.092101    0.398412    0.551000     0.008887
AG2422   AG        0.120871    0.361524    0.548053     0.008887
AG2423   AG        0.122133    0.398694    0.514957     0.008887
AG2424   AG        0.154553    0.360412    0.513333     0.008887
AG2425   AG        0.152966    0.395869    0.551137     0.008887
AG2426   AG        0.183884    0.358557    0.554310     0.008887
AG2427   AG        0.188411    0.396533    0.516968     0.008887
NI2428   NI        0.196344    0.361665    0.549127     0.004307
AG2429   AG        0.225915    0.397139    0.553902     0.008887
AG2430   AG        0.263493    0.359695    0.553750     0.008887
AG2431   AG        0.265159    0.394780    0.515545     0.008887
NI2432   NI        0.285510    0.358794    0.487958     0.004307
AG2433   AG        0.298803    0.396369    0.554735     0.008887
AG2434   AG        0.331764    0.357412    0.552798     0.008887
AG2435   AG        0.333669    0.394300    0.516865     0.008887
AG2436   AG        0.369182    0.357396    0.515536     0.008887
NI2437   NI        0.346349    0.366642    0.552064     0.004307
AG2438   AG        0.406068    0.356535    0.554378     0.008887
AG2439   AG        0.407999    0.394447    0.517385     0.008887
AG2440   AG        0.441826    0.357584    0.517244     0.008887
AG2441   AG        0.442184    0.392885    0.553468     0.008887
AG2442   AG        0.477245    0.357532    0.553758     0.008887
AG2443   AG        0.478240    0.394233    0.515282     0.008887
AG2444   AG        0.513006    0.359151    0.517538     0.008887
AG2445   AG        0.514870    0.395200    0.551922     0.008887
AG2446   AG        0.550345    0.359174    0.553196     0.008887
AG2447   AG        0.551655    0.396867    0.516751     0.008887
AG2448   AG        0.588182    0.359044    0.516021     0.008887
AG2449   AG        0.587588    0.396475    0.552626     0.008887
AG2450   AG        0.624583    0.359420    0.554763     0.008887
AG2451   AG        0.622494    0.394179    0.517389     0.008887
AG2452   AG        0.661243    0.359878    0.517004     0.008887
AG2453   AG        0.661860    0.395848    0.553581     0.008887
AG2454   AG        0.701835    0.358306    0.553865     0.008887
AG2455   AG        0.699772    0.394813    0.517182     0.008887
AG2456   AG        0.731276    0.357272    0.514681     0.008887
AG2457   AG        0.730926    0.400338    0.553202     0.008887
AG2458   AG        0.752565    0.358220    0.552461     0.008887
AG2459   AG        0.754969    0.394414    0.516866     0.008887
NI2460   NI        0.768070    0.324864    0.521247     0.004307
NI2461   NI        0.781872    0.390248    0.550696     0.004307
NI2462   NI        0.799240    0.364857    0.579098     0.004307
NI2463   NI        0.805862    0.383260    0.518962     0.004307
NI2464   NI        0.041830    0.438877    0.527723     0.004307
NI2465   NI        0.085261    0.433822    0.520284     0.004307
NI2466   NI        0.073839    0.477709    0.513354     0.004307
NI2467   NI        0.080264    0.431610    0.505266     0.004307
NI2468   NI        0.090578    0.470113    0.557038     0.004307
AG2469   AG        0.118743    0.435876    0.553784     0.008887
AG2470   AG        0.116779    0.467292    0.515692     0.008887
AG2471   AG        0.152422    0.431579    0.515770     0.008887
AG2472   AG        0.155295    0.468373    0.551876     0.008887
AG2473   AG        0.190506    0.432447    0.552680     0.008887
AG2474   AG        0.189776    0.469570    0.515296     0.008887
NI2475   NI        0.246487    0.433417    0.502454     0.004307
AG2476   AG        0.226328    0.468847    0.552741     0.008887
AG2477   AG        0.262052    0.432981    0.554733     0.008887
AG2478   AG        0.262867    0.469691    0.517284     0.008887
AG2479   AG        0.299112    0.430842    0.518155     0.008887
AG2480   AG        0.299649    0.470480    0.554053     0.008887
AG2481   AG        0.332938    0.433168    0.553590     0.008887
AG2482   AG        0.335124    0.469659    0.516889     0.008887
AG2483   AG        0.369929    0.433067    0.514816     0.008887
AG2484   AG        0.369809    0.465396    0.552728     0.008887
AG2485   AG        0.406916    0.430868    0.551551     0.008887
AG2486   AG        0.406925    0.470759    0.516351     0.008887
AG2487   AG        0.444721    0.430859    0.517056     0.008887
AG2488   AG        0.442318    0.468752    0.551989     0.008887
AG2489   AG        0.478443    0.431469    0.553235     0.008887
AG2490   AG        0.476821    0.467710    0.518052     0.008887
AG2491   AG        0.513534    0.432092    0.517870     0.008887
AG2492   AG        0.514100    0.466828    0.552801     0.008887
AG2493   AG        0.550157    0.429704    0.553315     0.008887
AG2494   AG        0.550354    0.468824    0.516838     0.008887
AG2495   AG        0.587695    0.431933    0.516935     0.008887
AG2496   AG        0.586925    0.467595    0.553135     0.008887
AG2497   AG        0.623851    0.432087    0.554424     0.008887
AG2498   AG        0.624390    0.467659    0.516097     0.008887
AG2499   AG        0.660750    0.430941    0.517195     0.008887
AG2500   AG        0.661843    0.467547    0.553277     0.008887
AG2501   AG        0.696582    0.429929    0.553219     0.008887
AG2502   AG        0.698521    0.468239    0.518560     0.008887
AG2503   AG        0.733372    0.432560    0.517170     0.008887
AG2504   AG        0.731858    0.466556    0.554457     0.008887
NI2505   NI        0.724215    0.429867    0.584126     0.004307
AG2506   AG        0.768150    0.471545    0.517438     0.008887
NI2507   NI        0.786685    0.428662    0.523784     0.004307
NI2508   NI        0.798501    0.466486    0.548554     0.004307
NI2509   NI        0.799807    0.407809    0.569492     0.004307
NI2510   NI        0.809217    0.482511    0.529374     0.004307
NI2511   NI        0.884450    0.393539    0.545029     0.004307
NI2512   NI        0.048309    0.495807    0.543585     0.004307
NI2513   NI        0.067586    0.550833    0.516213     0.004307
NI2514   NI        0.087384    0.506749    0.512973     0.004307
NI2515   NI        0.091711    0.547377    0.550685     0.004307
AG2516   AG        0.118205    0.504854    0.551410     0.008887
AG2517   AG        0.120037    0.540170    0.516701     0.008887
AG2518   AG        0.150046    0.504111    0.517159     0.008887
AG2519   AG        0.151859    0.541432    0.550526     0.008887
AG2520   AG        0.188670    0.506476    0.552297     0.008887
AG2521   AG        0.186526    0.541347    0.514324     0.008887
AG2522   AG        0.224825    0.503673    0.517319     0.008887
AG2523   AG        0.226014    0.540474    0.551643     0.008887
AG2524   AG        0.263198    0.505456    0.554498     0.008887
AG2525   AG        0.259962    0.540348    0.519723     0.008887
AG2526   AG        0.297957    0.504198    0.517875     0.008887
AG2527   AG        0.298675    0.539464    0.552336     0.008887
AG2528   AG        0.334544    0.506657    0.552012     0.008887
AG2529   AG        0.332516    0.539489    0.515313     0.008887
AG2530   AG        0.369836    0.507232    0.516204     0.008887
AG2531   AG        0.365846    0.538189    0.553135     0.008887
AG2532   AG        0.406214    0.504323    0.552251     0.008887
AG2533   AG        0.406138    0.541406    0.519203     0.008887
AG2534   AG        0.441974    0.506153    0.517802     0.008887
AG2535   AG        0.442135    0.541467    0.554380     0.008887
AG2536   AG        0.478748    0.503817    0.553826     0.008887
AG2537   AG        0.479321    0.545202    0.518261     0.008887
AG2538   AG        0.512278    0.505264    0.516245     0.008887
AG2539   AG        0.514030    0.543088    0.553364     0.008887
AG2540   AG        0.552052    0.503317    0.555434     0.008887
NI2541   NI        0.512457    0.536539    0.484408     0.004307
AG2542   AG        0.585842    0.504963    0.517598     0.008887
AG2543   AG        0.586360    0.539713    0.553670     0.008887
AG2544   AG        0.625944    0.503760    0.552719     0.008887
AG2545   AG        0.624999    0.543052    0.521151     0.008887
AG2546   AG        0.663020    0.505696    0.518158     0.008887
AG2547   AG        0.662309    0.542036    0.556790     0.008887
AG2548   AG        0.696875    0.502174    0.555751     0.008887
AG2549   AG        0.698986    0.542110    0.515659     0.008887
AG2550   AG        0.730847    0.504861    0.515958     0.008887
AG2551   AG        0.731809    0.539433    0.552669     0.008887
NI2552   NI        0.773475    0.507543    0.556655     0.004307
AG2553   AG        0.768647    0.538646    0.517415     0.008887
NI2554   NI        0.798475    0.504786    0.516722     0.004307
NI2555   NI        0.807367    0.549730    0.549257     0.004307
NI2556   NI        0.822753    0.503957    0.565571     0.004307
NI2557   NI        0.841397    0.530691    0.525925     0.004307
NI2558   NI        0.073790    0.587850    0.551389     0.004307
NI2559   NI        0.103775    0.583497    0.518408     0.004307
NI2560   NI        0.129623    0.613678    0.520938     0.004307
NI2561   NI        0.162556    0.619518    0.551037     0.004307
NI2562   NI        0.153155    0.582884    0.522538     0.004307
NI2563   NI        0.149951    0.576002    0.514698     0.004307
NI2564   NI        0.153973    0.613879    0.554772     0.004307
AG2565   AG        0.187499    0.574837    0.550126     0.008887
AG2566   AG        0.188126    0.612814    0.516857     0.008887
AG2567   AG        0.222921    0.576181    0.516825     0.008887
AG2568   AG        0.226497    0.614348    0.554990     0.008887
AG2569   AG        0.260618    0.577120    0.551458     0.008887
AG2570   AG        0.260361    0.614631    0.515979     0.008887
AG2571   AG        0.296347    0.577472    0.517391     0.008887
AG2572   AG        0.298857    0.613530    0.553350     0.008887
AG2573   AG        0.332066    0.578347    0.555000     0.008887
AG2574   AG        0.332341    0.615467    0.516521     0.008887
AG2575   AG        0.368054    0.576295    0.516343     0.008887
AG2576   AG        0.368941    0.612388    0.550908     0.008887
AG2577   AG        0.373388    0.542481    0.554759     0.008887
AG2578   AG        0.405168    0.615548    0.516093     0.008887
AG2579   AG        0.441725    0.578096    0.518058     0.008887
AG2580   AG        0.444632    0.615732    0.555987     0.008887
AG2581   AG        0.477231    0.579417    0.553274     0.008887
AG2582   AG        0.478025    0.617073    0.517368     0.008887
AG2583   AG        0.515557    0.579179    0.518129     0.008887
AG2584   AG        0.516106    0.613976    0.555229     0.008887
AG2585   AG        0.552038    0.580843    0.552768     0.008887
AG2586   AG        0.551758    0.619162    0.517211     0.008887
AG2587   AG        0.590419    0.581970    0.520655     0.008887
AG2588   AG        0.588771    0.617895    0.552942     0.008887
AG2589   AG        0.625618    0.580118    0.555384     0.008887
AG2590   AG        0.626322    0.616371    0.518427     0.008887
NI2591   NI        0.632778    0.572141    0.512058     0.004307
AG2592   AG        0.664498    0.616231    0.551800     0.008887
AG2593   AG        0.695835    0.578033    0.555275     0.008887
AG2594   AG        0.696928    0.613439    0.512952     0.008887
AG2595   AG        0.734446    0.576244    0.515533     0.008887
AG2596   AG        0.718928    0.618075    0.549940     0.008887
NI2597   NI        0.768065    0.577634    0.545334     0.004307
AG2598   AG        0.752060    0.619955    0.518990     0.008887
NI2599   NI        0.808013    0.557233    0.508597     0.004307
NI2600   NI        0.781404    0.580457    0.528138     0.004307
NI2601   NI        0.812825    0.564722    0.519949     0.004307
NI2602   NI        0.074206    0.655246    0.514304     0.004307
NI2603   NI        0.125238    0.649340    0.558093     0.004307
NI2604   NI        0.115056    0.667335    0.513636     0.004307
AG2605   AG        0.155767    0.648295    0.517044     0.008887
NI2606   NI        0.159048    0.677199    0.549790     0.004307
AG2607   AG        0.194200    0.643697    0.550094     0.008887
AG2608   AG        0.186702    0.683333    0.517802     0.008887
AG2609   AG        0.224449    0.650451    0.517295     0.008887
NI2610   NI        0.229108    0.681954    0.555318     0.004307
AG2611   AG        0.261557    0.647994    0.555208     0.008887
NI2612   NI        0.259513    0.682242    0.517422     0.004307
AG2613   AG        0.298710    0.653269    0.513495     0.008887
NI2614   NI        0.325755    0.670562    0.550609     0.004307
AG2615   AG        0.335981    0.651341    0.553041     0.008887
AG2616   AG        0.336904    0.689802    0.512889     0.008887
AG2617   AG        0.369777    0.653903    0.518235     0.008887
AG2618   AG        0.369119    0.686331    0.554936     0.008887
NI2619   NI        0.443178    0.684721    0.559077     0.004307
AG2620   AG        0.407195    0.688443    0.518489     0.008887
AG2621   AG        0.444220    0.650446    0.517612     0.008887
AG2622   AG        0.441612    0.687993    0.549487     0.008887
AG2623   AG        0.477462    0.651724    0.553211     0.008887
AG2624   AG        0.480557    0.685590    0.515964     0.008887
AG2625   AG        0.514037    0.651269    0.518602     0.008887
AG2626   AG        0.517004    0.684907    0.552651     0.008887
AG2627   AG        0.551356    0.649975    0.554039     0.008887
AG2628   AG        0.553096    0.686903    0.517886     0.008887
AG2629   AG        0.588596    0.652821    0.516467     0.008887
AG2630   AG        0.588524    0.685877    0.553405     0.008887
AG2631   AG        0.622995    0.655693    0.552075     0.008887
AG2632   AG        0.627435    0.689129    0.515775     0.008887
AG2633   AG        0.659036    0.650474    0.514055     0.008887
AG2634   AG        0.662881    0.691724    0.550977     0.008887
AG2635   AG        0.690648    0.651652    0.551861     0.008887
AG2636   AG        0.690359    0.686611    0.514625     0.008887
AG2637   AG        0.721654    0.652233    0.519441     0.008887
NI2638   NI        0.721817    0.683100    0.557917     0.004307
NI2639   NI        0.760267    0.660567    0.539410     0.004307
NI2640   NI        0.754765    0.654412    0.486539     0.004307
NI2641   NI        0.794114    0.642723    0.507366     0.004307
NI2642   NI        0.152877    0.714814    0.516049     0.004307
NI2643   NI        0.185924    0.718316    0.547899     0.004307
NI2644   NI        0.200429    0.753373    0.514074     0.004307
NI2645   NI        0.224102    0.707199    0.526276     0.004307
NI2646   NI        0.234792    0.749735    0.549804     0.004307
NI2647   NI        0.265895    0.712874    0.548511     0.004307
NI2648   NI        0.265558    0.725465    0.518930     0.004307
NI2649   NI        0.298948    0.707977    0.514428     0.004307
NI2650   NI        0.299111    0.744599    0.553551     0.004307
NI2651   NI        0.336643    0.717891    0.551002     0.004307
NI2652   NI        0.362077    0.768979    0.520265     0.004307
AG2653   AG        0.369586    0.720090    0.514218     0.008887
AG2654   AG        0.371456    0.743367    0.553765     0.008887
AG2655   AG        0.404819    0.715168    0.552476     0.008887
AG2656   AG        0.402048    0.751523    0.517434     0.008887
AG2657   AG        0.443635    0.725122    0.518160     0.008887
NI2658   NI        0.410320    0.763099    0.567080     0.004307
AG2659   AG        0.479798    0.721064    0.552565     0.008887
AG2660   AG        0.481863    0.759457    0.517053     0.008887
AG2661   AG        0.516769    0.723436    0.516771     0.008887
AG2662   AG        0.515306    0.758598    0.551933     0.008887
AG2663   AG        0.550836    0.722359    0.551942     0.008887
AG2664   AG        0.549989    0.761327    0.519061     0.008887
AG2665   AG        0.585682    0.724569    0.519294     0.008887
AG2666   AG        0.587258    0.755485    0.554135     0.008887
AG2667   AG        0.622993    0.721031    0.552527     0.008887
NI2668   NI        0.623323    0.752628    0.519694     0.004307
AG2669   AG        0.659735    0.722546    0.515230     0.008887
NI2670   NI        0.665678    0.741046    0.554074     0.004307
NI2671   NI        0.699894    0.719919    0.554029     0.004307
NI2672   NI        0.700252    0.754262    0.523880     0.004307
NI2673   NI        0.731075    0.704267    0.519429     0.004307
NI2674   NI        0.223594    0.793038    0.516439     0.004307
NI2675   NI        0.257769    0.815470    0.526528     0.004307
NI2676   NI        0.295804    0.760636    0.477747     0.004307
NI2677   NI        0.318090    0.810398    0.571189     0.004307
NI2678   NI        0.335610    0.774478    0.557267     0.004307
NI2679   NI        0.305278    0.774871    0.519567     0.004307
NI2680   NI        0.372850    0.790761    0.504905     0.004307
NI2681   NI        0.339392    0.802063    0.531968     0.004307
NI2682   NI        0.394430    0.789138    0.544894     0.004307
NI2683   NI        0.407288    0.817546    0.509827     0.004307
NI2684   NI        0.439980    0.775773    0.521334     0.004307
NI2685   NI        0.440686    0.798014    0.561234     0.004307
NI2686   NI        0.486224    0.790754    0.556326     0.004307
NI2687   NI        0.471480    0.808245    0.525039     0.004307
AG2688   AG        0.518227    0.795331    0.517059     0.008887
NI2689   NI        0.517895    0.810914    0.559471     0.004307
NI2690   NI        0.555627    0.785101    0.559884     0.004307
NI2691   NI        0.534354    0.837120    0.518373     0.004307
NI2692   NI        0.593106    0.783432    0.516413     0.004307
NI2693   NI        0.601197    0.798627    0.559551     0.004307
NI2694   NI        0.628351    0.797317    0.521994     0.004307
NI2695   NI        0.663249    0.772201    0.515479     0.004307
NI2696   NI        0.433516    0.849446    0.528665     0.004307
NI2697   NI        0.329462    0.044474    0.578684     0.004307
NI2698   NI        0.404839    0.060020    0.583262     0.004307
NI2699   NI        0.440756    0.032398    0.592491     0.004307
NI2700   NI        0.467483    0.041432    0.599726     0.004307
NI2701   NI        0.557198    0.055585    0.592403     0.004307
NI2702   NI        0.212915    0.087980    0.587957     0.004307
NI2703   NI        0.236945    0.112598    0.615559     0.004307
NI2704   NI        0.300262    0.148746    0.516721     0.004307
NI2705   NI        0.303321    0.090464    0.564982     0.004307
NI2706   NI        0.292304    0.114377    0.600505     0.004307
NI2707   NI        0.322959    0.088521    0.625659     0.004307
NI2708   NI        0.335704    0.107104    0.587860     0.004307
NI2709   NI        0.379995    0.095038    0.588571     0.004307
AG2710   AG        0.363704    0.106240    0.630691     0.008887
NI2711   NI        0.403309    0.079559    0.626604     0.004307
NI2712   NI        0.402559    0.106396    0.590892     0.004307
NI2713   NI        0.443584    0.089536    0.597090     0.004307
NI2714   NI        0.442459    0.104823    0.631055     0.004307
NI2715   NI        0.480958    0.070807    0.627650     0.004307
NI2716   NI        0.477935    0.117618    0.594422     0.004307
NI2717   NI        0.517999    0.074113    0.593697     0.004307
AG2718   AG        0.513127    0.103921    0.628395     0.008887
NI2719   NI        0.556950    0.088005    0.631196     0.004307
NI2720   NI        0.550388    0.104164    0.594513     0.004307
NI2721   NI        0.590273    0.086284    0.595114     0.004307
NI2722   NI        0.589124    0.120828    0.627892     0.004307
NI2723   NI        0.627270    0.106784    0.589231     0.004307
NI2724   NI        0.655837    0.103882    0.629834     0.004307
NI2725   NI        0.720821    0.138128    0.592948     0.004307
NI2726   NI        0.124130    0.220285    0.560544     0.004307
NI2727   NI        0.164612    0.151843    0.585920     0.004307
NI2728   NI        0.182244    0.177185    0.624113     0.004307
NI2729   NI        0.190924    0.160473    0.620379     0.004307
NI2730   NI        0.192740    0.188516    0.582753     0.004307
NI2731   NI        0.216636    0.167321    0.590970     0.004307
AG2732   AG        0.224883    0.187548    0.627437     0.008887
NI2733   NI        0.255232    0.154967    0.624319     0.004307
AG2734   AG        0.258695    0.183522    0.590020     0.008887
NI2735   NI        0.295408    0.158663    0.591086     0.004307
AG2736   AG        0.295478    0.177277    0.629588     0.008887
AG2737   AG        0.333570    0.143137    0.625257     0.008887
AG2738   AG        0.333602    0.177825    0.593151     0.008887
AG2739   AG        0.369981    0.140095    0.592000     0.008887
AG2740   AG        0.368697    0.177667    0.627129     0.008887
NI2741   NI        0.411295    0.180750    0.591744     0.004307
AG2742   AG        0.405109    0.174991    0.589450     0.008887
AG2743   AG        0.442131    0.143766    0.592223     0.008887
AG2744   AG        0.442432    0.175976    0.628240     0.008887
AG2745   AG        0.479883    0.142339    0.629524     0.008887
AG2746   AG        0.479387    0.174374    0.591230     0.008887
AG2747   AG        0.513772    0.140223    0.591854     0.008887
AG2748   AG        0.513755    0.175717    0.625331     0.008887
AG2749   AG        0.546953    0.140210    0.627428     0.008887
AG2750   AG        0.549582    0.177560    0.588583     0.008887
AG2751   AG        0.588094    0.139158    0.590999     0.008887
NI2752   NI        0.579331    0.215998    0.589571     0.004307
NI2753   NI        0.622121    0.152601    0.624946     0.004307
AG2754   AG        0.619702    0.179574    0.586497     0.008887
NI2755   NI        0.652532    0.147077    0.591840     0.004307
NI2756   NI        0.653177    0.185328    0.617518     0.004307
NI2757   NI        0.704171    0.161389    0.626214     0.004307
NI2758   NI        0.691906    0.179928    0.587310     0.004307
NI2759   NI        0.738539    0.178270    0.605579     0.004307
NI2760   NI        0.691168    0.140593    0.632480     0.004307
NI2761   NI        0.731155    0.211782    0.575373     0.004307
NI2762   NI        0.115119    0.252532    0.589307     0.004307
NI2763   NI        0.132347    0.248917    0.592992     0.004307
NI2764   NI        0.158038    0.215807    0.591361     0.004307
NI2765   NI        0.164877    0.256199    0.619942     0.004307
NI2766   NI        0.192594    0.222651    0.616069     0.004307
AG2767   AG        0.193622    0.250454    0.583623     0.008887
AG2768   AG        0.227493    0.214514    0.585893     0.008887
AG2769   AG        0.261935    0.254564    0.657237     0.008887
AG2770   AG        0.261654    0.213546    0.624895     0.008887
AG2771   AG        0.262270    0.249283    0.590424     0.008887
AG2772   AG        0.296753    0.212817    0.590388     0.008887
AG2773   AG        0.294592    0.253588    0.625570     0.008887
AG2774   AG        0.332756    0.213547    0.625598     0.008887
AG2775   AG        0.329859    0.248446    0.590500     0.008887
AG2776   AG        0.369799    0.212337    0.591214     0.008887
AG2777   AG        0.369580    0.247976    0.627158     0.008887
AG2778   AG        0.404069    0.211585    0.626887     0.008887
AG2779   AG        0.405016    0.246738    0.589401     0.008887
AG2780   AG        0.441599    0.213753    0.591868     0.008887
AG2781   AG        0.439176    0.248742    0.625696     0.008887
AG2782   AG        0.478231    0.211258    0.628346     0.008887
AG2783   AG        0.476699    0.251298    0.591506     0.008887
AG2784   AG        0.512367    0.216379    0.591889     0.008887
AG2785   AG        0.515041    0.248506    0.624751     0.008887
NI2786   NI        0.527952    0.189600    0.629781     0.004307
AG2787   AG        0.551145    0.250824    0.589305     0.008887
NI2788   NI        0.588054    0.214990    0.590684     0.004307
AG2789   AG        0.587501    0.251923    0.627984     0.008887
NI2790   NI        0.628462    0.225115    0.622296     0.004307
AG2791   AG        0.625620    0.255396    0.588179     0.008887
AG2792   AG        0.657705    0.217301    0.587369     0.008887
NI2793   NI        0.659636    0.252309    0.623060     0.004307
NI2794   NI        0.688841    0.219900    0.620045     0.004307
AG2795   AG        0.694458    0.251701    0.586728     0.008887
NI2796   NI        0.718528    0.215789    0.586978     0.004307
NI2797   NI        0.744422    0.275068    0.628541     0.004307
NI2798   NI        0.755992    0.228609    0.632630     0.004307
NI2799   NI        0.739620    0.249249    0.597296     0.004307
NI2800   NI        0.060320    0.327315    0.580600     0.004307
NI2801   NI        0.093455    0.289170    0.587265     0.004307
NI2802   NI        0.097074    0.320592    0.615908     0.004307
NI2803   NI        0.126348    0.285606    0.622817     0.004307
NI2804   NI        0.129480    0.326483    0.590233     0.004307
NI2805   NI        0.159270    0.285824    0.585154     0.004307
NI2806   NI        0.163836    0.322239    0.625474     0.004307
NI2807   NI        0.194803    0.290771    0.623665     0.004307
AG2808   AG        0.190582    0.322673    0.586201     0.008887
AG2809   AG        0.226285    0.285091    0.587131     0.008887
AG2810   AG        0.226472    0.322844    0.623032     0.008887
AG2811   AG        0.260315    0.288987    0.625151     0.008887
AG2812   AG        0.261486    0.320415    0.587962     0.008887
AG2813   AG        0.297547    0.285105    0.586887     0.008887
AG2814   AG        0.296252    0.321988    0.630052     0.008887
AG2815   AG        0.334091    0.291242    0.622897     0.008887
AG2816   AG        0.334780    0.321462    0.592054     0.008887
AG2817   AG        0.370656    0.283949    0.590161     0.008887
AG2818   AG        0.370064    0.320871    0.628484     0.008887
AG2819   AG        0.406538    0.284685    0.626973     0.008887
AG2820   AG        0.405708    0.320341    0.589628     0.008887
AG2821   AG        0.443429    0.286216    0.591082     0.008887
AG2822   AG        0.444492    0.322794    0.627761     0.008887
AG2823   AG        0.479808    0.285020    0.626684     0.008887
AG2824   AG        0.479399    0.323784    0.589576     0.008887
AG2825   AG        0.515083    0.285665    0.588417     0.008887
AG2826   AG        0.516186    0.325408    0.628682     0.008887
AG2827   AG        0.550506    0.287500    0.625996     0.008887
AG2828   AG        0.550648    0.323680    0.591680     0.008887
AG2829   AG        0.587692    0.286383    0.590845     0.008887
AG2830   AG        0.586396    0.323634    0.629088     0.008887
AG2831   AG        0.624224    0.288503    0.626764     0.008887
AG2832   AG        0.625141    0.323013    0.588285     0.008887
AG2833   AG        0.659474    0.288453    0.588862     0.008887
AG2834   AG        0.660982    0.326163    0.626476     0.008887
AG2835   AG        0.697154    0.322298    0.591038     0.008887
NI2836   NI        0.684681    0.328299    0.581615     0.004307
AG2837   AG        0.731366    0.287092    0.588557     0.008887
NI2838   NI        0.732039    0.323362    0.630743     0.004307
NI2839   NI        0.733975    0.320398    0.620931     0.004307
AG2840   AG        0.767271    0.324011    0.590073     0.008887
NI2841   NI        0.780712    0.281783    0.591418     0.004307
NI2842   NI        0.814697    0.322465    0.579109     0.004307
NI2843   NI        0.811406    0.327923    0.605682     0.004307
NI2844   NI        0.076971    0.398370    0.597100     0.004307
NI2845   NI        0.096591    0.362854    0.589031     0.004307
NI2846   NI        0.091684    0.399309    0.617796     0.004307
NI2847   NI        0.139285    0.356916    0.630889     0.004307
AG2848   AG        0.123628    0.400192    0.582502     0.008887
AG2849   AG        0.155655    0.362962    0.590272     0.008887
NI2850   NI        0.157069    0.398150    0.622766     0.004307
AG2851   AG        0.190754    0.359561    0.623888     0.008887
AG2852   AG        0.192279    0.396258    0.585907     0.008887
AG2853   AG        0.228079    0.357822    0.586813     0.008887
AG2854   AG        0.226354    0.395309    0.625907     0.008887
AG2855   AG        0.260193    0.360957    0.624692     0.008887
AG2856   AG        0.261108    0.396291    0.590487     0.008887
AG2857   AG        0.298045    0.359819    0.590562     0.008887
AG2858   AG        0.296366    0.396764    0.627016     0.008887
AG2859   AG        0.333329    0.357364    0.627299     0.008887
AG2860   AG        0.331735    0.395996    0.590526     0.008887
AG2861   AG        0.369993    0.355740    0.589639     0.008887
AG2862   AG        0.367185    0.395336    0.628326     0.008887
AG2863   AG        0.407060    0.357637    0.630887     0.008887
AG2864   AG        0.403996    0.393846    0.590517     0.008887
AG2865   AG        0.441514    0.359977    0.592321     0.008887
AG2866   AG        0.441888    0.392922    0.628596     0.008887
AG2867   AG        0.478124    0.360443    0.626237     0.008887
AG2868   AG        0.479198    0.394491    0.590622     0.008887
AG2869   AG        0.514986    0.359501    0.590847     0.008887
AG2870   AG        0.514677    0.395530    0.627830     0.008887
AG2871   AG        0.551311    0.360552    0.627551     0.008887
AG2872   AG        0.550676    0.395020    0.589178     0.008887
AG2873   AG        0.584932    0.360195    0.591404     0.008887
AG2874   AG        0.586355    0.395935    0.627198     0.008887
AG2875   AG        0.622307    0.360594    0.627853     0.008887
AG2876   AG        0.623756    0.397140    0.590825     0.008887
NI2877   NI        0.684595    0.357370    0.563201     0.004307
AG2878   AG        0.660114    0.395951    0.627828     0.008887
AG2879   AG        0.697569    0.361799    0.626904     0.008887
AG2880   AG        0.696123    0.396240    0.588793     0.008887
AG2881   AG        0.733360    0.356954    0.591822     0.008887
AG2882   AG        0.731295    0.397217    0.626185     0.008887
NI2883   NI        0.763125    0.362445    0.621163     0.004307
AG2884   AG        0.756625    0.394966    0.587760     0.008887
NI2885   NI        0.787699    0.363620    0.586105     0.004307
NI2886   NI        0.806620    0.392453    0.622233     0.004307
NI2887   NI        0.794483    0.396737    0.617164     0.004307
NI2888   NI        0.052974    0.439729    0.610675     0.004307
NI2889   NI        0.082317    0.477725    0.603884     0.004307
NI2890   NI        0.093158    0.436967    0.587980     0.004307
NI2891   NI        0.087634    0.470812    0.617471     0.004307
NI2892   NI        0.123700    0.431959    0.616556     0.004307
AG2893   AG        0.123103    0.471401    0.589159     0.008887
AG2894   AG        0.158012    0.432393    0.584740     0.008887
AG2895   AG        0.150853    0.468123    0.623689     0.008887
NI2896   NI        0.213469    0.438877    0.652535     0.004307
AG2897   AG        0.190545    0.469129    0.588844     0.008887
AG2898   AG        0.225257    0.435631    0.587896     0.008887
AG2899   AG        0.224841    0.471041    0.625192     0.008887
AG2900   AG        0.261499    0.432609    0.625210     0.008887
AG2901   AG        0.262177    0.470652    0.590084     0.008887
AG2902   AG        0.298838    0.433845    0.592676     0.008887
AG2903   AG        0.298061    0.469339    0.624872     0.008887
AG2904   AG        0.332898    0.429961    0.626607     0.008887
AG2905   AG        0.336187    0.466344    0.590048     0.008887
AG2906   AG        0.370280    0.431687    0.587171     0.008887
NI2907   NI        0.359322    0.431678    0.661795     0.004307
AG2908   AG        0.406564    0.429642    0.629656     0.008887
AG2909   AG        0.405982    0.468170    0.589416     0.008887
NI2910   NI        0.444046    0.404900    0.613347     0.004307
AG2911   AG        0.443032    0.469106    0.625745     0.008887
AG2912   AG        0.478691    0.429740    0.627898     0.008887
AG2913   AG        0.478362    0.467560    0.589882     0.008887
AG2914   AG        0.514237    0.431455    0.590724     0.008887
AG2915   AG        0.514675    0.468879    0.625955     0.008887
AG2916   AG        0.551479    0.431357    0.625225     0.008887
AG2917   AG        0.552679    0.467836    0.591829     0.008887
AG2918   AG        0.587879    0.431174    0.592309     0.008887
AG2919   AG        0.586079    0.467696    0.626644     0.008887
AG2920   AG        0.625214    0.431827    0.627275     0.008887
AG2921   AG        0.622927    0.467366    0.590893     0.008887
AG2922   AG        0.659279    0.430421    0.590101     0.008887
AG2923   AG        0.656665    0.466000    0.627145     0.008887
NI2924   NI        0.693780    0.433457    0.629301     0.004307
AG2925   AG        0.694381    0.466122    0.589184     0.008887
NI2926   NI        0.730304    0.439917    0.589391     0.004307
NI2927   NI        0.726868    0.427473    0.593928     0.004307
NI2928   NI        0.761179    0.427013    0.619359     0.004307
NI2929   NI        0.764741    0.471907    0.588138     0.004307
NI2930   NI        0.796373    0.426372    0.579635     0.004307
NI2931   NI        0.791626    0.439133    0.603366     0.004307
NI2932   NI        0.835823    0.426365    0.600914     0.004307
NI2933   NI        0.805840    0.469482    0.599037     0.004307
NI2934   NI        0.041398    0.561336    0.554488     0.004307
NI2935   NI        0.083902    0.513018    0.577729     0.004307
NI2936   NI        0.082903    0.522592    0.611545     0.004307
AG2937   AG        0.120011    0.504590    0.624411     0.008887
NI2938   NI        0.121261    0.535566    0.585188     0.004307
AG2939   AG        0.152028    0.504783    0.587873     0.008887
AG2940   AG        0.153528    0.540610    0.624914     0.008887
AG2941   AG        0.187658    0.505501    0.624692     0.008887
AG2942   AG        0.189274    0.540761    0.588668     0.008887
AG2943   AG        0.222074    0.504923    0.589680     0.008887
AG2944   AG        0.224157    0.540897    0.625307     0.008887
AG2945   AG        0.264538    0.504771    0.625053     0.008887
AG2946   AG        0.260766    0.540396    0.589443     0.008887
AG2947   AG        0.300558    0.502827    0.591635     0.008887
AG2948   AG        0.298918    0.540652    0.626529     0.008887
AG2949   AG        0.335858    0.506170    0.627041     0.008887
AG2950   AG        0.336753    0.539151    0.589888     0.008887
AG2951   AG        0.373196    0.504152    0.590916     0.008887
AG2952   AG        0.368352    0.541763    0.627292     0.008887
AG2953   AG        0.406193    0.504804    0.626273     0.008887
AG2954   AG        0.403814    0.542219    0.591402     0.008887
AG2955   AG        0.443900    0.506331    0.590544     0.008887
AG2956   AG        0.443473    0.542376    0.626447     0.008887
AG2957   AG        0.478760    0.506724    0.625608     0.008887
AG2958   AG        0.477931    0.543576    0.590328     0.008887
AG2959   AG        0.515084    0.504626    0.588037     0.008887
AG2960   AG        0.512640    0.542522    0.625980     0.008887
AG2961   AG        0.550993    0.504658    0.624588     0.008887
AG2962   AG        0.552302    0.542445    0.589188     0.008887
AG2963   AG        0.588115    0.505971    0.589550     0.008887
AG2964   AG        0.585529    0.541792    0.627017     0.008887
AG2965   AG        0.622986    0.504282    0.626458     0.008887
AG2966   AG        0.624062    0.542547    0.589163     0.008887
AG2967   AG        0.660040    0.505079    0.589686     0.008887
AG2968   AG        0.660115    0.541133    0.627122     0.008887
NI2969   NI        0.697470    0.500531    0.626630     0.004307
AG2970   AG        0.698901    0.538675    0.591813     0.008887
NI2971   NI        0.732074    0.504604    0.591703     0.004307
NI2972   NI        0.723954    0.541911    0.629010     0.004307
NI2973   NI        0.763285    0.513515    0.628310     0.004307
NI2974   NI        0.764715    0.543694    0.593917     0.004307
NI2975   NI        0.794217    0.506960    0.570224     0.004307
NI2976   NI        0.800000    0.542604    0.630095     0.004307
NI2977   NI        0.824569    0.543643    0.587428     0.004307
NI2978   NI        0.072035    0.558247    0.587050     0.004307
NI2979   NI        0.120961    0.544140    0.591041     0.004307
NI2980   NI        0.121403    0.616633    0.590591     0.004307
NI2981   NI        0.157900    0.576268    0.591073     0.004307
NI2982   NI        0.154042    0.613520    0.620038     0.004307
AG2983   AG        0.190162    0.575572    0.624930     0.008887
AG2984   AG        0.189630    0.609119    0.590052     0.008887
AG2985   AG        0.225545    0.576313    0.587258     0.008887
NI2986   NI        0.223714    0.605844    0.621478     0.004307
AG2987   AG        0.260214    0.576602    0.624452     0.008887
AG2988   AG        0.261072    0.612479    0.589016     0.008887
AG2989   AG        0.297638    0.577476    0.590089     0.008887
AG2990   AG        0.299297    0.613760    0.627934     0.008887
AG2991   AG        0.334854    0.578686    0.624793     0.008887
AG2992   AG        0.330933    0.616141    0.589707     0.008887
AG2993   AG        0.368276    0.577204    0.589432     0.008887
AG2994   AG        0.368455    0.615872    0.626696     0.008887
AG2995   AG        0.405551    0.579973    0.623986     0.008887
AG2996   AG        0.406206    0.614119    0.592033     0.008887
AG2997   AG        0.442590    0.576393    0.589510     0.008887
AG2998   AG        0.442562    0.616706    0.625175     0.008887
AG2999   AG        0.478886    0.579728    0.625570     0.008887
AG3000   AG        0.478642    0.616118    0.588371     0.008887
AG3001   AG        0.515640    0.577364    0.589579     0.008887
AG3002   AG        0.513186    0.616224    0.626553     0.008887
AG3003   AG        0.551356    0.577077    0.625922     0.008887
AG3004   AG        0.550509    0.613848    0.591923     0.008887
AG3005   AG        0.589526    0.578285    0.589199     0.008887
AG3006   AG        0.588587    0.614165    0.626670     0.008887
AG3007   AG        0.623494    0.578113    0.625228     0.008887
NI3008   NI        0.585431    0.605006    0.577053     0.004307
AG3009   AG        0.662088    0.576735    0.591368     0.008887
AG3010   AG        0.663903    0.612261    0.626634     0.008887
AG3011   AG        0.695944    0.575453    0.623209     0.008887
AG3012   AG        0.693086    0.615553    0.587065     0.008887
NI3013   NI        0.726808    0.575613    0.588003     0.004307
NI3014   NI        0.701381    0.606920    0.591827     0.004307
NI3015   NI        0.766155    0.571667    0.633722     0.004307
NI3016   NI        0.764308    0.619030    0.566237     0.004307
NI3017   NI        0.802878    0.592708    0.565256     0.004307
NI3018   NI        0.093664    0.657061    0.601611     0.004307
NI3019   NI        0.135301    0.674490    0.593673     0.004307
NI3020   NI        0.165964    0.645121    0.585395     0.004307
NI3021   NI        0.163246    0.678742    0.627151     0.004307
NI3022   NI        0.190098    0.645372    0.622175     0.004307
NI3023   NI        0.152773    0.647129    0.593589     0.004307
AG3024   AG        0.226924    0.646284    0.590316     0.008887
NI3025   NI        0.227235    0.682327    0.625779     0.004307
AG3026   AG        0.264014    0.647447    0.624318     0.008887
AG3027   AG        0.262594    0.680396    0.594036     0.008887
AG3028   AG        0.300470    0.651874    0.590440     0.008887
AG3029   AG        0.298322    0.682445    0.628395     0.008887
AG3030   AG        0.332295    0.648172    0.627136     0.008887
AG3031   AG        0.336081    0.688227    0.592766     0.008887
AG3032   AG        0.368828    0.651816    0.589348     0.008887
AG3033   AG        0.375724    0.683276    0.629598     0.008887
AG3034   AG        0.404887    0.649116    0.622236     0.008887
AG3035   AG        0.406796    0.687655    0.592265     0.008887
AG3036   AG        0.441929    0.651236    0.591112     0.008887
AG3037   AG        0.444011    0.689200    0.627148     0.008887
AG3038   AG        0.479400    0.653836    0.626677     0.008887
AG3039   AG        0.476492    0.688562    0.587615     0.008887
AG3040   AG        0.515233    0.651998    0.589468     0.008887
AG3041   AG        0.513532    0.684561    0.621681     0.008887
AG3042   AG        0.550481    0.650860    0.625227     0.008887
AG3043   AG        0.553680    0.684202    0.586968     0.008887
AG3044   AG        0.587771    0.649366    0.588390     0.008887
NI3045   NI        0.587441    0.679987    0.621453     0.004307
NI3046   NI        0.627537    0.645594    0.621831     0.004307
AG3047   AG        0.624371    0.684340    0.587907     0.008887
AG3048   AG        0.660152    0.652369    0.587697     0.008887
NI3049   NI        0.652972    0.680074    0.621885     0.004307
NI3050   NI        0.694923    0.654340    0.618423     0.004307
NI3051   NI        0.694718    0.688259    0.589339     0.004307
NI3052   NI        0.723558    0.646966    0.581204     0.004307
NI3053   NI        0.731358    0.681186    0.624086     0.004307
NI3054   NI        0.757183    0.644752    0.616533     0.004307
NI3055   NI        0.766493    0.671719    0.582054     0.004307
NI3056   NI        0.165062    0.711830    0.595568     0.004307
NI3057   NI        0.195332    0.711542    0.623547     0.004307
NI3058   NI        0.202225    0.744775    0.583421     0.004307
NI3059   NI        0.235515    0.717719    0.593476     0.004307
NI3060   NI        0.228269    0.742503    0.630105     0.004307
NI3061   NI        0.267309    0.711234    0.623550     0.004307
NI3062   NI        0.244914    0.729194    0.591831     0.004307
NI3063   NI        0.293871    0.709182    0.584720     0.004307
NI3064   NI        0.323984    0.718844    0.625799     0.004307
NI3065   NI        0.344711    0.716865    0.631210     0.004307
NI3066   NI        0.327465    0.737523    0.592276     0.004307
AG3067   AG        0.371550    0.716659    0.588565     0.008887
NI3068   NI        0.373582    0.765797    0.590998     0.004307
NI3069   NI        0.410324    0.720738    0.623534     0.004307
NI3070   NI        0.455164    0.757595    0.557103     0.004307
AG3071   AG        0.444616    0.723014    0.588277     0.008887
NI3072   NI        0.445227    0.746300    0.626643     0.004307
NI3073   NI        0.480281    0.718710    0.621679     0.004307
NI3074   NI        0.475275    0.763792    0.586864     0.004307
AG3075   AG        0.519126    0.717912    0.585755     0.008887
NI3076   NI        0.488366    0.750189    0.591569     0.004307
NI3077   NI        0.545485    0.712868    0.623722     0.004307
NI3078   NI        0.550774    0.747115    0.587051     0.004307
NI3079   NI        0.587112    0.720055    0.587131     0.004307
NI3080   NI        0.604054    0.746933    0.626496     0.004307
NI3081   NI        0.624576    0.711162    0.622420     0.004307
NI3082   NI        0.629031    0.757361    0.578826     0.004307
NI3083   NI        0.660153    0.716718    0.591454     0.004307
NI3084   NI        0.651814    0.752924    0.617468     0.004307
NI3085   NI        0.663930    0.689782    0.625074     0.004307
NI3086   NI        0.682752    0.759027    0.588008     0.004307
NI3087   NI        0.731242    0.684135    0.602660     0.004307
NI3088   NI        0.294820    0.807141    0.554063     0.004307
NI3089   NI        0.335565    0.751574    0.598458     0.004307
NI3090   NI        0.361786    0.803559    0.583997     0.004307
NI3091   NI        0.372830    0.781406    0.582062     0.004307
NI3092   NI        0.390254    0.795473    0.628717     0.004307
NI3093   NI        0.405373    0.810814    0.588176     0.004307
NI3094   NI        0.446775    0.798095    0.594505     0.004307
NI3095   NI        0.448161    0.772447    0.665363     0.004307
NI3096   NI        0.473946    0.784591    0.627285     0.004307
NI3097   NI        0.472551    0.829462    0.565620     0.004307
NI3098   NI        0.523352    0.783544    0.588854     0.004307
NI3099   NI        0.573622    0.783759    0.586438     0.004307
NI3100   NI        0.547633    0.819070    0.594212     0.004307
NI3101   NI        0.584784    0.772270    0.599006     0.004307
NI3102   NI        0.246773    0.131572    0.658475     0.004307
NI3103   NI        0.289286    0.121438    0.682429     0.004307
NI3104   NI        0.327148    0.117398    0.659407     0.004307
NI3105   NI        0.336299    0.106197    0.670798     0.004307
NI3106   NI        0.368505    0.126871    0.703409     0.004307
NI3107   NI        0.398704    0.105300    0.664975     0.004307
NI3108   NI        0.443215    0.093872    0.680375     0.004307
NI3109   NI        0.437834    0.100924    0.701161     0.004307
NI3110   NI        0.478039    0.105862    0.660266     0.004307
NI3111   NI        0.518821    0.088244    0.659014     0.004307
NI3112   NI        0.516803    0.141379    0.709111     0.004307
NI3113   NI        0.552775    0.117478    0.665184     0.004307
NI3114   NI        0.590812    0.098397    0.666083     0.004307
NI3115   NI        0.626757    0.119891    0.659404     0.004307
NI3116   NI        0.213903    0.161619    0.660546     0.004307
NI3117   NI        0.245148    0.167795    0.623230     0.004307
NI3118   NI        0.228167    0.190122    0.690128     0.004307
NI3119   NI        0.256586    0.154131    0.691958     0.004307
NI3120   NI        0.262689    0.184010    0.660469     0.004307
NI3121   NI        0.293780    0.145536    0.667801     0.004307
NI3122   NI        0.301792    0.183528    0.695024     0.004307
AG3123   AG        0.330426    0.148415    0.690435     0.008887
AG3124   AG        0.335239    0.180206    0.662048     0.008887
AG3125   AG        0.369662    0.144651    0.661798     0.008887
NI3126   NI        0.368785    0.177889    0.699591     0.004307
NI3127   NI        0.408684    0.139401    0.691323     0.004307
AG3128   AG        0.405467    0.179656    0.665062     0.008887
AG3129   AG        0.443854    0.139210    0.663416     0.008887
AG3130   AG        0.443251    0.176725    0.696959     0.008887
NI3131   NI        0.472839    0.139413    0.696425     0.004307
AG3132   AG        0.475664    0.176447    0.662299     0.008887
NI3133   NI        0.511701    0.135918    0.660971     0.004307
NI3134   NI        0.512973    0.246812    0.699392     0.004307
NI3135   NI        0.550456    0.154802    0.669990     0.004307
NI3136   NI        0.549292    0.173043    0.662301     0.004307
NI3137   NI        0.590898    0.143816    0.658331     0.004307
NI3138   NI        0.586686    0.182135    0.688742     0.004307
NI3139   NI        0.609958    0.136384    0.703530     0.004307
NI3140   NI        0.621681    0.195439    0.658332     0.004307
NI3141   NI        0.662354    0.146306    0.638504     0.004307
NI3142   NI        0.638958    0.180080    0.694408     0.004307
NI3143   NI        0.669398    0.179265    0.658117     0.004307
NI3144   NI        0.123368    0.260317    0.633489     0.004307
NI3145   NI        0.198620    0.205460    0.660846     0.004307
NI3146   NI        0.161534    0.263675    0.700772     0.004307
NI3147   NI        0.190869    0.223399    0.702772     0.004307
NI3148   NI        0.190493    0.250816    0.663073     0.004307
NI3149   NI        0.224696    0.215721    0.658186     0.004307
NI3150   NI        0.228841    0.251702    0.686403     0.004307
NI3151   NI        0.264757    0.224312    0.693564     0.004307
NI3152   NI        0.294302    0.253135    0.625473     0.004307
AG3153   AG        0.298029    0.216966    0.661000     0.008887
NI3154   NI        0.308767    0.253824    0.686566     0.004307
NI3155   NI        0.338126    0.211425    0.695825     0.004307
NI3156   NI        0.332219    0.280769    0.629483     0.004307
AG3157   AG        0.370505    0.212765    0.663650     0.008887
AG3158   AG        0.369008    0.250621    0.702391     0.008887
AG3159   AG        0.407921    0.214102    0.699231     0.008887
AG3160   AG        0.407438    0.248554    0.664703     0.008887
AG3161   AG        0.441267    0.212640    0.662876     0.008887
AG3162   AG        0.443462    0.248861    0.700781     0.008887
AG3163   AG        0.478251    0.213210    0.699515     0.008887
AG3164   AG        0.478693    0.248681    0.663891     0.008887
AG3165   AG        0.512725    0.214896    0.663300     0.008887
NI3166   NI        0.518652    0.255923    0.699660     0.004307
NI3167   NI        0.547850    0.220767    0.700330     0.004307
AG3168   AG        0.550656    0.253535    0.664498     0.008887
NI3169   NI        0.584905    0.219532    0.664381     0.004307
AG3170   AG        0.583678    0.252073    0.698620     0.008887
AG3171   AG        0.621576    0.220537    0.699298     0.008887
AG3172   AG        0.622972    0.251808    0.663586     0.008887
AG3173   AG        0.658311    0.221576    0.663752     0.008887
AG3174   AG        0.658470    0.253601    0.697345     0.008887
NI3175   NI        0.693409    0.251166    0.663894     0.004307
NI3176   NI        0.689018    0.260822    0.656468     0.004307
NI3177   NI        0.717801    0.253946    0.624240     0.004307
NI3178   NI        0.731591    0.269609    0.682246     0.004307
NI3179   NI        0.757471    0.245132    0.591946     0.004307
NI3180   NI        0.125345    0.283133    0.684763     0.004307
NI3181   NI        0.131090    0.318415    0.654274     0.004307
NI3182   NI        0.162487    0.283700    0.653358     0.004307
NI3183   NI        0.162307    0.317689    0.686763     0.004307
NI3184   NI        0.198261    0.288085    0.697219     0.004307
NI3185   NI        0.199477    0.319677    0.657496     0.004307
AG3186   AG        0.229542    0.286356    0.662265     0.008887
NI3187   NI        0.229724    0.319266    0.696770     0.004307
NI3188   NI        0.259948    0.288049    0.694466     0.004307
AG3189   AG        0.256380    0.324026    0.661085     0.008887
AG3190   AG        0.297594    0.288157    0.660430     0.008887
NI3191   NI        0.237903    0.311955    0.698280     0.004307
AG3192   AG        0.333637    0.289264    0.700249     0.008887
AG3193   AG        0.333792    0.324999    0.661534     0.008887
AG3194   AG        0.368042    0.285651    0.664751     0.008887
AG3195   AG        0.368877    0.320878    0.700487     0.008887
AG3196   AG        0.408121    0.283378    0.702470     0.008887
AG3197   AG        0.408745    0.318174    0.661191     0.008887
AG3198   AG        0.443222    0.283018    0.662261     0.008887
AG3199   AG        0.443091    0.323405    0.697795     0.008887
AG3200   AG        0.480693    0.287856    0.699956     0.008887
AG3201   AG        0.479711    0.324290    0.663111     0.008887
AG3202   AG        0.515018    0.286895    0.661787     0.008887
AG3203   AG        0.515485    0.323680    0.698981     0.008887
AG3204   AG        0.549545    0.288731    0.699140     0.008887
AG3205   AG        0.550643    0.321130    0.664458     0.008887
AG3206   AG        0.587811    0.286542    0.664321     0.008887
AG3207   AG        0.585667    0.322984    0.700089     0.008887
AG3208   AG        0.621734    0.289955    0.699162     0.008887
AG3209   AG        0.622445    0.324558    0.663532     0.008887
AG3210   AG        0.652136    0.285694    0.662030     0.008887
AG3211   AG        0.657593    0.325670    0.693839     0.008887
NI3212   NI        0.686521    0.292578    0.690149     0.004307
NI3213   NI        0.698471    0.329024    0.661353     0.004307
NI3214   NI        0.741312    0.307221    0.661902     0.004307
NI3215   NI        0.725838    0.313484    0.701793     0.004307
NI3216   NI        0.763743    0.294598    0.707819     0.004307
NI3217   NI        0.757823    0.310278    0.665234     0.004307
NI3218   NI        0.060586    0.362779    0.616486     0.004307
NI3219   NI        0.124825    0.352116    0.677688     0.004307
NI3220   NI        0.121115    0.396923    0.657049     0.004307
NI3221   NI        0.159569    0.352850    0.653683     0.004307
NI3222   NI        0.147870    0.388338    0.672248     0.004307
NI3223   NI        0.173352    0.353032    0.665658     0.004307
NI3224   NI        0.193232    0.395828    0.661968     0.004307
AG3225   AG        0.225052    0.361942    0.660923     0.008887
NI3226   NI        0.231321    0.398913    0.698892     0.004307
AG3227   AG        0.259284    0.362696    0.699488     0.008887
AG3228   AG        0.260940    0.399332    0.661899     0.008887
AG3229   AG        0.294605    0.361002    0.662146     0.008887
AG3230   AG        0.297507    0.394963    0.699161     0.008887
AG3231   AG        0.335302    0.357847    0.701389     0.008887
AG3232   AG        0.333566    0.396875    0.663340     0.008887
AG3233   AG        0.368285    0.356710    0.664495     0.008887
AG3234   AG        0.370217    0.392890    0.699910     0.008887
AG3235   AG        0.407035    0.359125    0.702222     0.008887
AG3236   AG        0.407721    0.393131    0.665193     0.008887
AG3237   AG        0.443236    0.356734    0.665556     0.008887
AG3238   AG        0.443372    0.395445    0.703736     0.008887
AG3239   AG        0.480810    0.358234    0.701921     0.008887
AG3240   AG        0.478429    0.394992    0.666655     0.008887
AG3241   AG        0.515821    0.360314    0.664102     0.008887
AG3242   AG        0.513824    0.392905    0.701185     0.008887
AG3243   AG        0.551883    0.355827    0.702723     0.008887
AG3244   AG        0.550009    0.396930    0.663362     0.008887
AG3245   AG        0.588036    0.358503    0.663329     0.008887
NI3246   NI        0.554909    0.365637    0.702176     0.004307
AG3247   AG        0.625032    0.360704    0.699527     0.008887
AG3248   AG        0.623471    0.397557    0.661569     0.008887
AG3249   AG        0.659669    0.360898    0.660646     0.008887
NI3250   NI        0.658354    0.397345    0.699579     0.004307
NI3251   NI        0.704715    0.338363    0.671147     0.004307
NI3252   NI        0.692786    0.403181    0.666615     0.004307
NI3253   NI        0.731798    0.365969    0.654179     0.004307
NI3254   NI        0.698099    0.394044    0.711856     0.004307
NI3255   NI        0.740729    0.358978    0.659775     0.004307
NI3256   NI        0.771178    0.391420    0.654248     0.004307
NI3257   NI        0.780263    0.307632    0.632480     0.004307
NI3258   NI        0.101723    0.467558    0.633045     0.004307
NI3259   NI        0.136868    0.429924    0.691478     0.004307
NI3260   NI        0.131586    0.466777    0.665025     0.004307
NI3261   NI        0.163475    0.435527    0.649818     0.004307
NI3262   NI        0.155774    0.470072    0.700080     0.004307
NI3263   NI        0.190906    0.431672    0.698195     0.004307
NI3264   NI        0.185099    0.472998    0.663703     0.004307
NI3265   NI        0.228681    0.430052    0.665485     0.004307
NI3266   NI        0.222341    0.465927    0.700902     0.004307
AG3267   AG        0.262843    0.431320    0.702457     0.008887
AG3268   AG        0.261198    0.469739    0.661279     0.008887
AG3269   AG        0.297239    0.433599    0.661421     0.008887
AG3270   AG        0.300081    0.468354    0.698830     0.008887
AG3271   AG        0.335935    0.432814    0.699447     0.008887
AG3272   AG        0.333025    0.467310    0.661866     0.008887
AG3273   AG        0.371262    0.429112    0.662701     0.008887
AG3274   AG        0.369766    0.468794    0.698110     0.008887
NI3275   NI        0.397762    0.430601    0.681993     0.004307
AG3276   AG        0.407965    0.469635    0.662638     0.008887
AG3277   AG        0.444148    0.431121    0.662862     0.008887
AG3278   AG        0.444770    0.471839    0.697116     0.008887
AG3279   AG        0.476785    0.432140    0.700136     0.008887
AG3280   AG        0.479088    0.467840    0.662401     0.008887
AG3281   AG        0.514467    0.433388    0.662577     0.008887
AG3282   AG        0.514364    0.467997    0.698576     0.008887
AG3283   AG        0.550909    0.432262    0.698101     0.008887
AG3284   AG        0.550649    0.470765    0.662647     0.008887
AG3285   AG        0.588899    0.433597    0.660866     0.008887
AG3286   AG        0.586155    0.470110    0.702033     0.008887
AG3287   AG        0.624249    0.433621    0.701496     0.008887
AG3288   AG        0.623561    0.469870    0.663005     0.008887
AG3289   AG        0.659739    0.435315    0.665329     0.008887
AG3290   AG        0.659201    0.468858    0.698774     0.008887
AG3291   AG        0.696997    0.437664    0.700604     0.008887
AG3292   AG        0.692933    0.471392    0.662608     0.008887
NI3293   NI        0.729188    0.435786    0.663841     0.004307
NI3294   NI        0.728212    0.471750    0.694359     0.004307
NI3295   NI        0.768564    0.434010    0.700428     0.004307
NI3296   NI        0.773876    0.473707    0.631706     0.004307
NI3297   NI        0.790419    0.434245    0.654475     0.004307
NI3298   NI        0.117587    0.540927    0.648012     0.004307
NI3299   NI        0.127357    0.505143    0.699163     0.004307
NI3300   NI        0.126744    0.535464    0.665832     0.004307
AG3301   AG        0.151553    0.506441    0.661668     0.008887
NI3302   NI        0.152771    0.543509    0.699629     0.004307
NI3303   NI        0.192550    0.502258    0.699371     0.004307
NI3304   NI        0.186939    0.544682    0.657298     0.004307
AG3305   AG        0.262711    0.503751    0.698348     0.008887
NI3306   NI        0.224054    0.540050    0.697470     0.004307
NI3307   NI        0.285033    0.497190    0.702258     0.004307
AG3308   AG        0.264337    0.538885    0.661988     0.008887
AG3309   AG        0.296222    0.503901    0.661248     0.008887
AG3310   AG        0.299308    0.538148    0.697619     0.008887
AG3311   AG        0.333952    0.505108    0.697216     0.008887
AG3312   AG        0.332060    0.540718    0.662760     0.008887
AG3313   AG        0.371217    0.506505    0.663867     0.008887
NI3314   NI        0.341771    0.541742    0.663647     0.004307
AG3315   AG        0.406746    0.503590    0.699594     0.008887
AG3316   AG        0.409294    0.544968    0.660863     0.008887
AG3317   AG        0.442635    0.505965    0.662129     0.008887
AG3318   AG        0.443168    0.540835    0.695295     0.008887
AG3319   AG        0.480707    0.505283    0.698296     0.008887
AG3320   AG        0.480316    0.540033    0.661956     0.008887
AG3321   AG        0.514958    0.506453    0.661921     0.008887
AG3322   AG        0.515234    0.541888    0.697070     0.008887
AG3323   AG        0.551586    0.505773    0.699034     0.008887
AG3324   AG        0.552098    0.540636    0.661837     0.008887
AG3325   AG        0.586364    0.503733    0.661474     0.008887
AG3326   AG        0.586556    0.543223    0.699858     0.008887
AG3327   AG        0.627478    0.504928    0.699717     0.008887
AG3328   AG        0.623996    0.540749    0.659267     0.008887
AG3329   AG        0.659120    0.503579    0.663318     0.008887
AG3330   AG        0.660119    0.537972    0.695232     0.008887
NI3331   NI        0.692212    0.508919    0.697624     0.004307
NI3332   NI        0.690965    0.541651    0.664661     0.004307
NI3333   NI        0.735601    0.493761    0.654053     0.004307
NI3334   NI        0.701330    0.506508    0.695902     0.004307
NI3335   NI        0.753913    0.510982    0.694809     0.004307
NI3336   NI        0.769725    0.522867    0.652875     0.004307
NI3337   NI        0.790345    0.506404    0.662353     0.004307
NI3338   NI        0.110315    0.576862    0.675102     0.004307
NI3339   NI        0.132103    0.615838    0.666949     0.004307
NI3340   NI        0.153045    0.574071    0.660612     0.004307
NI3341   NI        0.188196    0.625206    0.702315     0.004307
NI3342   NI        0.197713    0.570810    0.691395     0.004307
NI3343   NI        0.232481    0.613908    0.630195     0.004307
NI3344   NI        0.233030    0.572412    0.657370     0.004307
NI3345   NI        0.231330    0.609328    0.698432     0.004307
NI3346   NI        0.263791    0.576172    0.695117     0.004307
NI3347   NI        0.267126    0.611268    0.661188     0.004307
AG3348   AG        0.299124    0.574698    0.661280     0.008887
NI3349   NI        0.293478    0.614001    0.696489     0.004307
AG3350   AG        0.334388    0.573370    0.696956     0.008887
AG3351   AG        0.334872    0.614275    0.662777     0.008887
AG3352   AG        0.369197    0.578524    0.661275     0.008887
NI3353   NI        0.373974    0.655512    0.664016     0.004307
AG3354   AG        0.407383    0.578141    0.698586     0.008887
NI3355   NI        0.406575    0.616671    0.662796     0.004307
AG3356   AG        0.444034    0.578628    0.661560     0.008887
AG3357   AG        0.444234    0.612028    0.696612     0.008887
AG3358   AG        0.479029    0.576240    0.698309     0.008887
AG3359   AG        0.479800    0.616023    0.662395     0.008887
NI3360   NI        0.510780    0.576877    0.659910     0.004307
NI3361   NI        0.520909    0.578655    0.664539     0.004307
AG3362   AG        0.551108    0.576738    0.698300     0.008887
AG3363   AG        0.550671    0.612122    0.660119     0.008887
AG3364   AG        0.588387    0.576821    0.661504     0.008887
NI3365   NI        0.589027    0.611350    0.697302     0.004307
AG3366   AG        0.624120    0.574393    0.695987     0.008887
AG3367   AG        0.627652    0.610042    0.662508     0.008887
AG3368   AG        0.660053    0.574077    0.661158     0.008887
NI3369   NI        0.659473    0.612898    0.697905     0.004307
NI3370   NI        0.663566    0.589130    0.702647     0.004307
NI3371   NI        0.695028    0.601019    0.671588     0.004307
NI3372   NI        0.731504    0.576729    0.658364     0.004307
NI3373   NI        0.737518    0.614487    0.684560     0.004307
NI3374   NI        0.737228    0.583928    0.700376     0.004307
NI3375   NI        0.763827    0.614202    0.643252     0.004307
NI3376   NI        0.164647    0.642915    0.657373     0.004307
NI3377   NI        0.212962    0.646052    0.669847     0.004307
NI3378   NI        0.190829    0.682851    0.659065     0.004307
NI3379   NI        0.223188    0.671861    0.632859     0.004307
NI3380   NI        0.223834    0.648905    0.715128     0.004307
NI3381   NI        0.267477    0.647941    0.692156     0.004307
NI3382   NI        0.265288    0.677331    0.661633     0.004307
AG3383   AG        0.298230    0.649596    0.659099     0.008887
NI3384   NI        0.299273    0.682265    0.697802     0.004307
AG3385   AG        0.335662    0.651837    0.695886     0.008887
AG3386   AG        0.334207    0.685701    0.660811     0.008887
NI3387   NI        0.361796    0.647274    0.658695     0.004307
AG3388   AG        0.370071    0.684492    0.699352     0.008887
NI3389   NI        0.410217    0.654964    0.700419     0.004307
NI3390   NI        0.414194    0.655980    0.632710     0.004307
NI3391   NI        0.447438    0.652976    0.662892     0.004307
AG3392   AG        0.448835    0.687536    0.699931     0.008887
NI3393   NI        0.479146    0.650185    0.700835     0.004307
NI3394   NI        0.480993    0.689418    0.659461     0.004307
AG3395   AG        0.517994    0.652783    0.660433     0.008887
NI3396   NI        0.521101    0.687037    0.684828     0.004307
NI3397   NI        0.552315    0.648433    0.696861     0.004307
NI3398   NI        0.551152    0.685648    0.658970     0.004307
NI3399   NI        0.589443    0.663150    0.641018     0.004307
NI3400   NI        0.586504    0.679352    0.687384     0.004307
NI3401   NI        0.625607    0.645859    0.695187     0.004307
NI3402   NI        0.625890    0.679305    0.656293     0.004307
NI3403   NI        0.659496    0.650104    0.656679     0.004307
NI3404   NI        0.641902    0.693732    0.662648     0.004307
NI3405   NI        0.702050    0.642949    0.690200     0.004307
NI3406   NI        0.779084    0.682567    0.627087     0.004307
NI3407   NI        0.708912    0.651555    0.658718     0.004307
NI3408   NI        0.227932    0.701987    0.665522     0.004307
NI3409   NI        0.259228    0.709547    0.703236     0.004307
NI3410   NI        0.261096    0.720549    0.633568     0.004307
NI3411   NI        0.295121    0.712558    0.662192     0.004307
NI3412   NI        0.294171    0.746533    0.693236     0.004307
NI3413   NI        0.332349    0.715048    0.689442     0.004307
NI3414   NI        0.335330    0.732342    0.670570     0.004307
NI3415   NI        0.373137    0.718356    0.668929     0.004307
NI3416   NI        0.393877    0.747494    0.700708     0.004307
NI3417   NI        0.406083    0.705036    0.712150     0.004307
NI3418   NI        0.412215    0.746872    0.658401     0.004307
NI3419   NI        0.450212    0.723012    0.661159     0.004307
NI3420   NI        0.451010    0.757418    0.700523     0.004307
NI3421   NI        0.483914    0.722117    0.699729     0.004307
NI3422   NI        0.474227    0.757922    0.664329     0.004307
NI3423   NI        0.516515    0.722703    0.657320     0.004307
NI3424   NI        0.480435    0.724778    0.688888     0.004307
NI3425   NI        0.553773    0.717531    0.680499     0.004307
NI3426   NI        0.560147    0.751860    0.635934     0.004307
NI3427   NI        0.585909    0.713925    0.650028     0.004307
NI3428   NI        0.599160    0.756865    0.696939     0.004307
NI3429   NI        0.615364    0.713440    0.696627     0.004307
NI3430   NI        0.628609    0.740787    0.661107     0.004307
NI3431   NI        0.651035    0.715078    0.636454     0.004307
NI3432   NI        0.368677    0.777778    0.669956     0.004307
NI3433   NI        0.462700    0.804689    0.688008     0.004307
NI3434   NI        0.542025    0.792542    0.628507     0.004307
NI3435   NI        0.408482    0.176507    0.721520     0.004307
NI3436   NI        0.475581    0.092377    0.712623     0.004307
NI3437   NI        0.262689    0.186544    0.720658     0.004307
NI3438   NI        0.289752    0.142747    0.719666     0.004307
NI3439   NI        0.272552    0.182144    0.732071     0.004307
NI3440   NI        0.333814    0.175403    0.731046     0.004307
NI3441   NI        0.380803    0.150057    0.703090     0.004307
NI3442   NI        0.379419    0.206902    0.774261     0.004307
NI3443   NI        0.397327    0.133675    0.744359     0.004307
NI3444   NI        0.408571    0.177442    0.736768     0.004307
NI3445   NI        0.439724    0.141157    0.724173     0.004307
NI3446   NI        0.455314    0.198008    0.775267     0.004307
NI3447   NI        0.487520    0.128437    0.733970     0.004307
NI3448   NI        0.489347    0.207247    0.750834     0.004307
NI3449   NI        0.471560    0.171707    0.733227     0.004307
NI3450   NI        0.495859    0.170322    0.779992     0.004307
NI3451   NI        0.555063    0.166565    0.713524     0.004307
NI3452   NI        0.546491    0.178822    0.717711     0.004307
NI3453   NI        0.592487    0.182090    0.741731     0.004307
NI3454   NI        0.630205    0.173661    0.713370     0.004307
NI3455   NI        0.201982    0.254562    0.729303     0.004307
NI3456   NI        0.231568    0.219595    0.725873     0.004307
NI3457   NI        0.229840    0.255045    0.769458     0.004307
NI3458   NI        0.259754    0.219150    0.756596     0.004307
NI3459   NI        0.258589    0.252062    0.729622     0.004307
NI3460   NI        0.297386    0.216450    0.724109     0.004307
NI3461   NI        0.295133    0.244460    0.758571     0.004307
NI3462   NI        0.335149    0.210268    0.757556     0.004307
NI3463   NI        0.327638    0.247556    0.729588     0.004307
NI3464   NI        0.375461    0.208167    0.728231     0.004307
NI3465   NI        0.364656    0.247328    0.751972     0.004307
NI3466   NI        0.400468    0.244627    0.782046     0.004307
AG3467   AG        0.406395    0.250157    0.732764     0.008887
AG3468   AG        0.444071    0.210954    0.733306     0.008887
NI3469   NI        0.489461    0.284072    0.746393     0.004307
NI3470   NI        0.479024    0.207993    0.768880     0.004307
AG3471   AG        0.480145    0.250608    0.735190     0.008887
NI3472   NI        0.515521    0.215825    0.736836     0.004307
NI3473   NI        0.519497    0.246063    0.769393     0.004307
NI3474   NI        0.554652    0.237697    0.778192     0.004307
AG3475   AG        0.551330    0.252974    0.734921     0.008887
NI3476   NI        0.558790    0.209148    0.752018     0.004307
NI3477   NI        0.587165    0.262884    0.763369     0.004307
NI3478   NI        0.629393    0.205830    0.739834     0.004307
NI3479   NI        0.622638    0.255894    0.727640     0.004307
NI3480   NI        0.664750    0.212264    0.714050     0.004307
NI3481   NI        0.628958    0.317316    0.733236     0.004307
NI3482   NI        0.696464    0.237836    0.691812     0.004307
NI3483   NI        0.093511    0.313839    0.681133     0.004307
NI3484   NI        0.191592    0.278924    0.754912     0.004307
NI3485   NI        0.227831    0.333584    0.696180     0.004307
NI3486   NI        0.232330    0.285895    0.726797     0.004307
NI3487   NI        0.208143    0.319546    0.741025     0.004307
NI3488   NI        0.255437    0.299622    0.771569     0.004307
AG3489   AG        0.257740    0.326425    0.736679     0.008887
NI3490   NI        0.298176    0.251037    0.695540     0.004307
NI3491   NI        0.299189    0.322734    0.761576     0.004307
NI3492   NI        0.328112    0.284355    0.750483     0.004307
AG3493   AG        0.337851    0.325635    0.739672     0.008887
AG3494   AG        0.371238    0.288950    0.734097     0.008887
AG3495   AG        0.373038    0.323675    0.771893     0.008887
NI3496   NI        0.407849    0.293741    0.773025     0.004307
AG3497   AG        0.408222    0.322296    0.736104     0.008887
AG3498   AG        0.442252    0.285433    0.734605     0.008887
AG3499   AG        0.444491    0.321322    0.772073     0.008887
NI3500   NI        0.477678    0.286868    0.771592     0.004307
AG3501   AG        0.481247    0.320650    0.737449     0.008887
AG3502   AG        0.514336    0.287243    0.736550     0.008887
NI3503   NI        0.518172    0.324749    0.773714     0.004307
NI3504   NI        0.549979    0.284843    0.768448     0.004307
AG3505   AG        0.550920    0.324353    0.735160     0.008887
AG3506   AG        0.585900    0.288108    0.726364     0.008887
NI3507   NI        0.615022    0.320159    0.741849     0.004307
NI3508   NI        0.627701    0.287096    0.774681     0.004307
NI3509   NI        0.621295    0.325495    0.725558     0.004307
NI3510   NI        0.657335    0.288715    0.731489     0.004307
NI3511   NI        0.654109    0.320330    0.762125     0.004307
NI3512   NI        0.688241    0.287773    0.762218     0.004307
NI3513   NI        0.693378    0.320861    0.723316     0.004307
NI3514   NI        0.692705    0.292746    0.683858     0.004307
NI3515   NI        0.120285    0.413154    0.734865     0.004307
NI3516   NI        0.155373    0.388498    0.713183     0.004307
NI3517   NI        0.152391    0.387957    0.759141     0.004307
NI3518   NI        0.187852    0.360307    0.759989     0.004307
NI3519   NI        0.197958    0.396148    0.727284     0.004307
NI3520   NI        0.227275    0.361853    0.734753     0.004307
NI3521   NI        0.232696    0.400067    0.771050     0.004307
NI3522   NI        0.260992    0.360833    0.769594     0.004307
AG3523   AG        0.262537    0.393932    0.738793     0.008887
AG3524   AG        0.298186    0.359050    0.739259     0.008887
AG3525   AG        0.296173    0.393473    0.770743     0.008887
AG3526   AG        0.335749    0.358207    0.772282     0.008887
AG3527   AG        0.333630    0.393093    0.737808     0.008887
AG3528   AG        0.372510    0.358956    0.736513     0.008887
AG3529   AG        0.370654    0.394980    0.771699     0.008887
AG3530   AG        0.406015    0.358636    0.773278     0.008887
AG3531   AG        0.407553    0.394073    0.738408     0.008887
AG3532   AG        0.443123    0.356962    0.736670     0.008887
AG3533   AG        0.444329    0.394496    0.773106     0.008887
AG3534   AG        0.479916    0.355621    0.772422     0.008887
AG3535   AG        0.480478    0.396309    0.736260     0.008887
AG3536   AG        0.516192    0.355492    0.736646     0.008887
AG3537   AG        0.514186    0.396343    0.776912     0.008887
AG3538   AG        0.546697    0.361343    0.769692     0.008887
NI3539   NI        0.527625    0.396890    0.685497     0.004307
AG3540   AG        0.584607    0.359424    0.735683     0.008887
NI3541   NI        0.591035    0.394078    0.772320     0.004307
NI3542   NI        0.624888    0.362484    0.754002     0.004307
AG3543   AG        0.622896    0.400444    0.732845     0.008887
NI3544   NI        0.649504    0.357499    0.734572     0.004307
NI3545   NI        0.664439    0.381386    0.744825     0.004307
NI3546   NI        0.693269    0.355460    0.756844     0.004307
NI3547   NI        0.701224    0.402768    0.736334     0.004307
NI3548   NI        0.732024    0.363537    0.734616     0.004307
NI3549   NI        0.710449    0.401981    0.789410     0.004307
NI3550   NI        0.766468    0.365406    0.702248     0.004307
NI3551   NI        0.124144    0.464176    0.720076     0.004307
NI3552   NI        0.153704    0.429188    0.733564     0.004307
NI3553   NI        0.150055    0.471400    0.773813     0.004307
NI3554   NI        0.195740    0.400910    0.744196     0.004307
NI3555   NI        0.186665    0.470841    0.735706     0.004307
NI3556   NI        0.225429    0.434198    0.734216     0.004307
NI3557   NI        0.225791    0.469926    0.769098     0.004307
NI3558   NI        0.261279    0.436065    0.766357     0.004307
NI3559   NI        0.260062    0.465488    0.731606     0.004307
AG3560   AG        0.295494    0.430252    0.734302     0.008887
NI3561   NI        0.297687    0.472193    0.769076     0.004307
AG3562   AG        0.335579    0.429470    0.765433     0.008887
AG3563   AG        0.336507    0.469966    0.734092     0.008887
AG3564   AG        0.370652    0.431999    0.734985     0.008887
AG3565   AG        0.371691    0.468670    0.765850     0.008887
AG3566   AG        0.409310    0.431723    0.769647     0.008887
AG3567   AG        0.405464    0.469254    0.735591     0.008887
AG3568   AG        0.442312    0.433519    0.735546     0.008887
AG3569   AG        0.443877    0.467231    0.773901     0.008887
AG3570   AG        0.479396    0.432222    0.772295     0.008887
AG3571   AG        0.479140    0.468877    0.733415     0.008887
AG3572   AG        0.512424    0.432573    0.736077     0.008887
AG3573   AG        0.516676    0.467341    0.773486     0.008887
AG3574   AG        0.550092    0.431058    0.771673     0.008887
AG3575   AG        0.549612    0.466831    0.735058     0.008887
AG3576   AG        0.589174    0.434780    0.737419     0.008887
AG3577   AG        0.586495    0.468675    0.769780     0.008887
NI3578   NI        0.630033    0.435272    0.767710     0.004307
AG3579   AG        0.621649    0.468626    0.735192     0.008887
NI3580   NI        0.660813    0.433890    0.733107     0.004307
NI3581   NI        0.661339    0.473288    0.767416     0.004307
NI3582   NI        0.695709    0.440593    0.762470     0.004307
NI3583   NI        0.696619    0.474707    0.731148     0.004307
NI3584   NI        0.732193    0.443739    0.730599     0.004307
NI3585   NI        0.730772    0.474141    0.759747     0.004307
NI3586   NI        0.766608    0.476065    0.721873     0.004307
NI3587   NI        0.152787    0.510405    0.736490     0.004307
NI3588   NI        0.185940    0.507399    0.770377     0.004307
NI3589   NI        0.192513    0.543038    0.733414     0.004307
NI3590   NI        0.223541    0.504646    0.732510     0.004307
NI3591   NI        0.264590    0.546135    0.772452     0.004307
NI3592   NI        0.258949    0.496918    0.759423     0.004307
NI3593   NI        0.268234    0.535112    0.737508     0.004307
NI3594   NI        0.295330    0.503778    0.731332     0.004307
NI3595   NI        0.301326    0.510488    0.739450     0.004307
AG3596   AG        0.337593    0.500236    0.764736     0.008887
AG3597   AG        0.334105    0.537587    0.732676     0.008887
AG3598   AG        0.370013    0.503102    0.731237     0.008887
AG3599   AG        0.370199    0.537274    0.760052     0.008887
NI3600   NI        0.407155    0.507636    0.768675     0.004307
NI3601   NI        0.406408    0.540570    0.735249     0.004307
AG3602   AG        0.442378    0.501884    0.737527     0.008887
NI3603   NI        0.419665    0.538561    0.732714     0.004307
AG3604   AG        0.477880    0.502704    0.773069     0.008887
AG3605   AG        0.478552    0.538269    0.733756     0.008887
AG3606   AG        0.514427    0.505466    0.736226     0.008887
AG3607   AG        0.515051    0.539829    0.772352     0.008887
AG3608   AG        0.552295    0.503961    0.773649     0.008887
AG3609   AG        0.550165    0.540160    0.735299     0.008887
AG3610   AG        0.587099    0.504096    0.735422     0.008887
AG3611   AG        0.589550    0.537705    0.765638     0.008887
NI3612   NI        0.621577    0.505724    0.767495     0.004307
AG3613   AG        0.620794    0.540563    0.731910     0.008887
NI3614   NI        0.652545    0.502354    0.737602     0.004307
NI3615   NI        0.663123    0.538094    0.760689     0.004307
NI3616   NI        0.650080    0.460350    0.742590     0.004307
NI3617   NI        0.662906    0.505307    0.730650     0.004307
NI3618   NI        0.733356    0.510297    0.726483     0.004307
NI3619   NI        0.153850    0.579784    0.709016     0.004307
NI3620   NI        0.197544    0.558745    0.773784     0.004307
NI3621   NI        0.193180    0.592441    0.735825     0.004307
NI3622   NI        0.259191    0.539726    0.723434     0.004307
NI3623   NI        0.231695    0.603922    0.763178     0.004307
NI3624   NI        0.299091    0.567724    0.742237     0.004307
NI3625   NI        0.257126    0.615727    0.726966     0.004307
NI3626   NI        0.296189    0.543911    0.707429     0.004307
NI3627   NI        0.304474    0.612172    0.752431     0.004307
NI3628   NI        0.336959    0.577951    0.745147     0.004307
NI3629   NI        0.331225    0.615195    0.721213     0.004307
NI3630   NI        0.369490    0.575515    0.733417     0.004307
NI3631   NI        0.365637    0.613626    0.758245     0.004307
NI3632   NI        0.405720    0.588354    0.773025     0.004307
NI3633   NI        0.408421    0.609417    0.734048     0.004307
AG3634   AG        0.443451    0.576493    0.734573     0.008887
NI3635   NI        0.443395    0.611568    0.768269     0.004307
NI3636   NI        0.478890    0.580954    0.765583     0.004307
NI3637   NI        0.477061    0.614445    0.734000     0.004307
AG3638   AG        0.513357    0.575923    0.735154     0.008887
NI3639   NI        0.508980    0.614934    0.754807     0.004307
NI3640   NI        0.557902    0.568277    0.766895     0.004307
NI3641   NI        0.554696    0.610623    0.731633     0.004307
AG3642   AG        0.587541    0.575728    0.732123     0.008887
NI3643   NI        0.588624    0.612157    0.756518     0.004307
NI3644   NI        0.625145    0.572017    0.758971     0.004307
NI3645   NI        0.629852    0.601799    0.730106     0.004307
NI3646   NI        0.663151    0.569790    0.726706     0.004307
NI3647   NI        0.630206    0.605285    0.790118     0.004307
NI3648   NI        0.690776    0.573951    0.759307     0.004307
NI3649   NI        0.702576    0.604444    0.718557     0.004307
NI3650   NI        0.731566    0.557688    0.732630     0.004307
NI3651   NI        0.217176    0.635680    0.733999     0.004307
NI3652   NI        0.264546    0.625258    0.737958     0.004307
NI3653   NI        0.261398    0.669377    0.728300     0.004307
NI3654   NI        0.300843    0.651339    0.726845     0.004307
NI3655   NI        0.284947    0.654921    0.768525     0.004307
NI3656   NI        0.330541    0.645272    0.758450     0.004307
NI3657   NI        0.327284    0.691017    0.732462     0.004307
NI3658   NI        0.364495    0.652099    0.735744     0.004307
NI3659   NI        0.370496    0.679899    0.750260     0.004307
NI3660   NI        0.402644    0.649716    0.753264     0.004307
NI3661   NI        0.408473    0.707265    0.700459     0.004307
NI3662   NI        0.443555    0.653886    0.734005     0.004307
NI3663   NI        0.469766    0.704922    0.734318     0.004307
NI3664   NI        0.488641    0.659043    0.742780     0.004307
NI3665   NI        0.484422    0.695589    0.720568     0.004307
NI3666   NI        0.516025    0.649469    0.732416     0.004307
NI3667   NI        0.519739    0.689730    0.754089     0.004307
NI3668   NI        0.551079    0.651064    0.755495     0.004307
NI3669   NI        0.551629    0.684403    0.721468     0.004307
NI3670   NI        0.588222    0.648490    0.725302     0.004307
NI3671   NI        0.563816    0.703585    0.760651     0.004307
NI3672   NI        0.625520    0.639239    0.751868     0.004307
NI3673   NI        0.595749    0.690269    0.731976     0.004307
NI3674   NI        0.662038    0.631967    0.727792     0.004307
NI3675   NI        0.281503    0.694590    0.745016     0.004307
NI3676   NI        0.363569    0.719045    0.722508     0.004307
NI3677   NI        0.392110    0.725803    0.758576     0.004307
NI3678   NI        0.441045    0.734348    0.701310     0.004307
NI3679   NI        0.448904    0.716665    0.738861     0.004307
NI3680   NI        0.481212    0.720460    0.776197     0.004307
NI3681   NI        0.481719    0.746884    0.731591     0.004307
NI3682   NI        0.524253    0.724878    0.716805     0.004307
NI3683   NI        0.574642    0.722713    0.719878     0.004307
NI3684   NI        0.339254    0.278251    0.817294     0.004307
NI3685   NI        0.362411    0.221203    0.794522     0.004307
NI3686   NI        0.402597    0.272633    0.815993     0.004307
NI3687   NI        0.439187    0.219077    0.779302     0.004307
NI3688   NI        0.443638    0.243385    0.815004     0.004307
NI3689   NI        0.478845    0.237314    0.779239     0.004307
NI3690   NI        0.520348    0.207655    0.785451     0.004307
NI3691   NI        0.539166    0.273135    0.810620     0.004307
NI3692   NI        0.279613    0.319436    0.808114     0.004307
NI3693   NI        0.298801    0.282756    0.785138     0.004307
NI3694   NI        0.337836    0.356917    0.817363     0.004307
NI3695   NI        0.313083    0.316461    0.833691     0.004307
AG3696   AG        0.333683    0.315390    0.790902     0.008887
NI3697   NI        0.362615    0.282706    0.779960     0.004307
NI3698   NI        0.367372    0.322178    0.820214     0.004307
NI3699   NI        0.383610    0.281660    0.816231     0.004307
NI3700   NI        0.411796    0.321872    0.806670     0.004307
NI3701   NI        0.447764    0.292854    0.811629     0.004307
NI3702   NI        0.446334    0.325517    0.843898     0.004307
NI3703   NI        0.483301    0.304171    0.851795     0.004307
AG3704   AG        0.477415    0.325676    0.808813     0.008887
NI3705   NI        0.517187    0.316621    0.770539     0.004307
NI3706   NI        0.519426    0.316304    0.821844     0.004307
NI3707   NI        0.577365    0.257697    0.834564     0.004307
NI3708   NI        0.551624    0.326041    0.810810     0.004307
NI3709   NI        0.582956    0.280563    0.804770     0.004307
NI3710   NI        0.599935    0.321640    0.808233     0.004307
NI3711   NI        0.631239    0.328659    0.781934     0.004307
NI3712   NI        0.220607    0.323027    0.757719     0.004307
NI3713   NI        0.257678    0.399981    0.790983     0.004307
NI3714   NI        0.295882    0.355523    0.791740     0.004307
NI3715   NI        0.292304    0.398785    0.822019     0.004307
NI3716   NI        0.307210    0.354132    0.805235     0.004307
AG3717   AG        0.334004    0.394678    0.797912     0.008887
NI3718   NI        0.367826    0.363878    0.803443     0.004307
NI3719   NI        0.367202    0.399304    0.829181     0.004307
NI3720   NI        0.402972    0.359104    0.830744     0.004307
NI3721   NI        0.406261    0.398672    0.804273     0.004307
NI3722   NI        0.443233    0.355674    0.807868     0.004307
NI3723   NI        0.450637    0.366316    0.811137     0.004307
NI3724   NI        0.481753    0.354250    0.844790     0.004307
NI3725   NI        0.477225    0.398975    0.807642     0.004307
NI3726   NI        0.514305    0.359341    0.800927     0.004307
NI3727   NI        0.508960    0.399264    0.844756     0.004307
NI3728   NI        0.532304    0.357525    0.842942     0.004307
NI3729   NI        0.584089    0.396488    0.755633     0.004307
NI3730   NI        0.591684    0.358730    0.783655     0.004307
NI3731   NI        0.558241    0.392765    0.845549     0.004307
NI3732   NI        0.603639    0.388577    0.814473     0.004307
NI3733   NI        0.647652    0.381072    0.837143     0.004307
NI3734   NI        0.228049    0.438288    0.797045     0.004307
NI3735   NI        0.249673    0.440547    0.842700     0.004307
NI3736   NI        0.261604    0.471097    0.808239     0.004307
NI3737   NI        0.296518    0.433630    0.791348     0.004307
NI3738   NI        0.290549    0.468123    0.818180     0.004307
NI3739   NI        0.328424    0.431680    0.827910     0.004307
NI3740   NI        0.329428    0.465878    0.785770     0.004307
NI3741   NI        0.364401    0.436602    0.800398     0.004307
NI3742   NI        0.361674    0.485085    0.805299     0.004307
NI3743   NI        0.409879    0.429902    0.842806     0.004307
NI3744   NI        0.405716    0.470162    0.804018     0.004307
NI3745   NI        0.437108    0.433670    0.806139     0.004307
NI3746   NI        0.447674    0.464170    0.843749     0.004307
NI3747   NI        0.476099    0.433778    0.836861     0.004307
NI3748   NI        0.481511    0.470301    0.807447     0.004307
AG3749   AG        0.514840    0.431376    0.807856     0.008887
NI3750   NI        0.512201    0.469781    0.841603     0.004307
NI3751   NI        0.543642    0.439473    0.840216     0.004307
AG3752   AG        0.550658    0.467572    0.804068     0.008887
NI3753   NI        0.589958    0.431539    0.791136     0.004307
NI3754   NI        0.561708    0.556151    0.846188     0.004307
NI3755   NI        0.627727    0.425886    0.818424     0.004307
NI3756   NI        0.629075    0.468954    0.793845     0.004307
NI3757   NI        0.635229    0.393196    0.781217     0.004307
NI3758   NI        0.224298    0.481794    0.782190     0.004307
NI3759   NI        0.262805    0.539512    0.814582     0.004307
NI3760   NI        0.294627    0.512335    0.783736     0.004307
NI3761   NI        0.316682    0.545972    0.839715     0.004307
NI3762   NI        0.323807    0.502709    0.812278     0.004307
NI3763   NI        0.348344    0.537696    0.803593     0.004307
NI3764   NI        0.338819    0.507790    0.773586     0.004307
NI3765   NI        0.376540    0.571561    0.810669     0.004307
NI3766   NI        0.417130    0.535745    0.805162     0.004307
NI3767   NI        0.402865    0.547415    0.787169     0.004307
NI3768   NI        0.441648    0.500475    0.811155     0.004307
NI3769   NI        0.448981    0.547829    0.832719     0.004307
NI3770   NI        0.477438    0.498563    0.841800     0.004307
NI3771   NI        0.483469    0.531664    0.807167     0.004307
AG3772   AG        0.514429    0.501349    0.806645     0.008887
NI3773   NI        0.526379    0.549404    0.814459     0.004307
NI3774   NI        0.557529    0.513900    0.819185     0.004307
NI3775   NI        0.553737    0.539142    0.801666     0.004307
NI3776   NI        0.593185    0.499853    0.801208     0.004307
NI3777   NI        0.588429    0.549838    0.816679     0.004307
NI3778   NI        0.628725    0.538137    0.792852     0.004307
NI3779   NI        0.655877    0.508999    0.809779     0.004307
NI3780   NI        0.291905    0.572117    0.796250     0.004307
NI3781   NI        0.327572    0.583446    0.815080     0.004307
NI3782   NI        0.310871    0.606855    0.774213     0.004307
NI3783   NI        0.364444    0.575699    0.784401     0.004307
NI3784   NI        0.407268    0.582668    0.817436     0.004307
NI3785   NI        0.395644    0.611465    0.794531     0.004307
NI3786   NI        0.442306    0.571166    0.793844     0.004307
NI3787   NI        0.440102    0.611608    0.811844     0.004307
NI3788   NI        0.482540    0.580785    0.816037     0.004307
NI3789   NI        0.479699    0.619787    0.795734     0.004307
NI3790   NI        0.518783    0.584272    0.786315     0.004307
NI3791   NI        0.560259    0.545709    0.782996     0.004307
NI3792   NI        0.550990    0.620524    0.777404     0.004307
NI3793   NI        0.601143    0.564572    0.770909     0.004307
NI3794   NI        0.372588    0.650508    0.785094     0.004307
NI3795   NI        0.450018    0.652772    0.808773     0.004307
NI3796   NI        0.513475    0.647411    0.781103     0.004307
NI3797   NI        0.419197    0.402345    0.847027     0.004307
NI3798   NI        0.428170    0.362466    0.855526     0.004307
NI3799   NI        0.461966    0.394424    0.850236     0.004307
NI3800   NI        0.365006    0.437876    0.852424     0.004307
NI3801   NI        0.405763    0.463957    0.867317     0.004307
NI3802   NI        0.434896    0.430039    0.879908     0.004307
NI3803   NI        0.527491    0.477936    0.813935     0.004307
NI3804   NI        0.518363    0.440804    0.881622     0.004307
NI3805   NI        0.426835    0.504831    0.851314     0.004307
