data_00001
_audit_creation_method   'DISCUS'

_data_chemical_name_common 'Au.cell: Pearson 85'

_cell_length_a             57.1046
_cell_length_b             57.1046
_cell_length_c             53.0257
_cell_angle_alpha     90.0000
_cell_angle_beta      90.0000
_cell_angle_gamma     90.0000

_symmetry_space_group_name_H-M   'P1              '

loop_
_atom_site_label
_atom_site_symbol
_atom_site_fract_x
_atom_site_fract_y
_atom_site_fract_z
_atom_site_u_iso_or_equiv
PD1   PD        0.356920    0.292478    0.039117     0.005394
PD2   PD        0.390929    0.255927    0.041059     0.005394
PD3   PD        0.496969    0.292733    0.042420     0.005394
PD4   PD        0.281658    0.361928    0.038365     0.005394
PD5   PD        0.271853    0.264057    0.059168     0.005394
PD6   PD        0.357690    0.362308    0.038318     0.005394
PD7   PD        0.393809    0.324031    0.041624     0.005394
PD8   PD        0.426217    0.362669    0.040769     0.005394
PD9   PD        0.465364    0.327655    0.040558     0.005394
PD10   PD        0.497913    0.362700    0.040749     0.005394
PD11   PD        0.534629    0.326555    0.040623     0.005394
PD12   PD        0.571270    0.358158    0.039062     0.005394
PD13   PD        0.245196    0.397653    0.035040     0.005394
PD14   PD        0.286718    0.433373    0.039379     0.005394
PD15   PD        0.321070    0.398415    0.042475     0.005394
PD16   PD        0.356004    0.432043    0.037082     0.005394
PD17   PD        0.391467    0.397432    0.039390     0.005394
PD18   PD        0.398066    0.438243    0.001554     0.005394
PD19   PD        0.427314    0.400437    0.003713     0.005394
PD20   PD        0.428030    0.434044    0.041406     0.005394
PD21   PD        0.462522    0.399998    0.041252     0.005394
PD22   PD        0.464105    0.434497    0.002229     0.005394
PD23   PD        0.500140    0.436086    0.041328     0.005394
PD24   PD        0.533615    0.397429    0.039258     0.005394
PD25   PD        0.574334    0.432005    0.039473     0.005394
PD26   PD        0.606297    0.397918    0.041260     0.005394
PD27   PD        0.250167    0.468538    0.041655     0.005394
PD28   PD        0.283323    0.506093    0.040082     0.005394
PD29   PD        0.319092    0.471865    0.038126     0.005394
PD30   PD        0.356815    0.469997    0.006272     0.005394
PD31   PD        0.355556    0.506204    0.039970     0.005394
PD32   PD        0.392107    0.470205    0.040645     0.005394
PD33   PD        0.393529    0.504861    0.003318     0.005394
PD34   PD        0.428162    0.469024    0.004485     0.005394
PD35   PD        0.426933    0.506608    0.040934     0.005394
PD36   PD        0.463005    0.470131    0.042090     0.005394
PD37   PD        0.463106    0.504308    0.004458     0.005394
PD38   PD        0.497611    0.469380    0.004012     0.005394
PD39   PD        0.500095    0.503668    0.041120     0.005394
PD40   PD        0.535120    0.472579    0.039741     0.005394
PD41   PD        0.570436    0.505368    0.042991     0.005394
PD42   PD        0.607519    0.467424    0.039108     0.005394
PD43   PD        0.246092    0.540381    0.039261     0.005394
PD44   PD        0.282280    0.571882    0.039672     0.005394
PD45   PD        0.321055    0.540441    0.040626     0.005394
PD46   PD        0.356715    0.575837    0.040268     0.005394
PD47   PD        0.393978    0.539747    0.038557     0.005394
PD48   PD        0.428007    0.542901    0.000769     0.005394
PD49   PD        0.426201    0.576245    0.038219     0.005394
PD50   PD        0.462858    0.539760    0.038960     0.005394
PD51   PD        0.496592    0.576648    0.040503     0.005394
PD52   PD        0.536152    0.538107    0.040841     0.005394
PD53   PD        0.572920    0.573989    0.040652     0.005394
PD54   PD        0.608919    0.538767    0.040917     0.005394
PD55   PD        0.316227    0.610833    0.039793     0.005394
PD56   PD        0.313470    0.676655    0.026574     0.005394
PD57   PD        0.391288    0.612982    0.040120     0.005394
PD58   PD        0.424257    0.610506    0.001053     0.005394
PD59   PD        0.463767    0.612509    0.041389     0.005394
PD60   PD        0.497699    0.651383    0.041665     0.005394
PD61   PD        0.533570    0.607477    0.036079     0.005394
PD62   PD        0.283945    0.216601    0.117116     0.005394
PD63   PD        0.355731    0.220747    0.111807     0.005394
PD64   PD        0.392123    0.185891    0.112113     0.005394
PD65   PD        0.393961    0.221920    0.077229     0.005394
PD66   PD        0.427883    0.216399    0.112814     0.005394
PD67   PD        0.464505    0.186412    0.115007     0.005394
PD68   PD        0.462718    0.221223    0.078862     0.005394
PD69   PD        0.496779    0.222722    0.116398     0.005394
PD70   PD        0.572187    0.219833    0.113701     0.005394
PD71   PD        0.211154    0.290487    0.115508     0.005394
PD72   PD        0.250388    0.254698    0.115500     0.005394
PD73   PD        0.247535    0.329325    0.039889     0.005394
PD74   PD        0.285581    0.290326    0.116060     0.005394
PD75   PD        0.318757    0.251873    0.116208     0.005394
PD76   PD        0.320677    0.293585    0.072267     0.005394
PD77   PD        0.353587    0.256960    0.076534     0.005394
PD78   PD        0.357087    0.292872    0.114027     0.005394
PD79   PD        0.390591    0.256809    0.112725     0.005394
PD80   PD        0.390324    0.290613    0.077796     0.005394
PD81   PD        0.428068    0.254386    0.078918     0.005394
PD82   PD        0.426688    0.289975    0.113596     0.005394
PD83   PD        0.462516    0.255491    0.113885     0.005394
PD84   PD        0.462478    0.289279    0.076986     0.005394
PD85   PD        0.498537    0.253110    0.077683     0.005394
PD86   PD        0.497024    0.291618    0.113606     0.005394
PD87   PD        0.535920    0.255148    0.111321     0.005394
PD88   PD        0.531597    0.291876    0.075989     0.005394
PD89   PD        0.574373    0.288296    0.114571     0.005394
PD90   PD        0.607721    0.250595    0.113467     0.005394
PD91   PD        0.607094    0.289745    0.075083     0.005394
PD92   PD        0.679610    0.325728    0.112539     0.005394
PD93   PD        0.177320    0.328284    0.116706     0.005394
PD94   PD        0.209434    0.362200    0.116652     0.005394
PD95   PD        0.246246    0.327569    0.115444     0.005394
PD96   PD        0.250261    0.364239    0.074663     0.005394
PD97   PD        0.283271    0.325495    0.077658     0.005394
PD98   PD        0.283521    0.361475    0.112079     0.005394
PD99   PD        0.319162    0.324860    0.115256     0.005394
PD100   PD        0.315435    0.361840    0.072644     0.005394
PD101   PD        0.356840    0.328936    0.075005     0.005394
PD102   PD        0.357477    0.361693    0.112619     0.005394
AU103   AU        0.391778    0.328619    0.114832     0.007504
AU104   AU        0.391459    0.363943    0.076647     0.007504
PD105   PD        0.426686    0.326101    0.077152     0.005394
AU106   AU        0.428046    0.362900    0.112186     0.007504
PD107   PD        0.464032    0.324388    0.112694     0.005394
PD108   PD        0.463661    0.363703    0.078039     0.005394
PD109   PD        0.499844    0.327306    0.077792     0.005394
AU110   AU        0.499207    0.362693    0.112066     0.007504
PD111   PD        0.538944    0.323584    0.113636     0.005394
PD112   PD        0.534735    0.363787    0.075646     0.005394
PD113   PD        0.570808    0.324074    0.076331     0.005394
PD114   PD        0.573066    0.362170    0.113204     0.005394
PD115   PD        0.607839    0.325941    0.113944     0.005394
PD116   PD        0.608656    0.366622    0.075509     0.005394
PD117   PD        0.645563    0.359300    0.111024     0.005394
PD118   PD        0.712491    0.360853    0.110427     0.005394
PD119   PD        0.140793    0.434652    0.113009     0.005394
PD120   PD        0.179370    0.399861    0.114060     0.005394
PD121   PD        0.176448    0.434352    0.076364     0.005394
PD122   PD        0.212366    0.400092    0.076009     0.005394
PD123   PD        0.213157    0.433319    0.116384     0.005394
PD124   PD        0.245389    0.400054    0.114138     0.005394
PD125   PD        0.248457    0.432631    0.076699     0.005394
PD126   PD        0.284426    0.400492    0.075084     0.005394
AU127   AU        0.282229    0.432666    0.113398     0.007504
AU128   AU        0.316881    0.397651    0.113085     0.007504
PD129   PD        0.320339    0.435025    0.078675     0.005394
PD130   PD        0.354397    0.396861    0.076983     0.005394
AU131   AU        0.354791    0.434462    0.112100     0.007504
AU132   AU        0.392007    0.397372    0.111392     0.007504
AU133   AU        0.392175    0.433125    0.074840     0.007504
AU134   AU        0.425955    0.397968    0.075707     0.007504
AU135   AU        0.425735    0.432151    0.111700     0.007504
AU136   AU        0.462767    0.398934    0.112324     0.007504
PD137   PD        0.463006    0.434168    0.077660     0.005394
PD138   PD        0.500622    0.399337    0.075071     0.005394
AU139   AU        0.500886    0.433399    0.113452     0.007504
AU140   AU        0.534893    0.397454    0.113257     0.007504
PD141   PD        0.535372    0.436499    0.073953     0.005394
PD142   PD        0.571745    0.397830    0.077300     0.005394
AU143   AU        0.571068    0.433527    0.113743     0.007504
PD144   PD        0.607396    0.399578    0.115741     0.005394
PD145   PD        0.605498    0.433104    0.077576     0.005394
PD146   PD        0.641397    0.399831    0.077198     0.005394
PD147   PD        0.642744    0.431573    0.112854     0.005394
PD148   PD        0.678742    0.395483    0.111548     0.005394
PD149   PD        0.675831    0.434715    0.077463     0.005394
PD150   PD        0.712925    0.430493    0.114404     0.005394
PD151   PD        0.142259    0.504113    0.113506     0.005394
PD152   PD        0.177353    0.470762    0.114052     0.005394
PD153   PD        0.178309    0.504157    0.076074     0.005394
PD154   PD        0.211157    0.470355    0.076417     0.005394
PD155   PD        0.212601    0.508027    0.112002     0.005394
PD156   PD        0.248438    0.470464    0.111008     0.005394
PD157   PD        0.247678    0.505153    0.073365     0.005394
PD158   PD        0.284195    0.469485    0.075972     0.005394
AU159   AU        0.281679    0.505446    0.113953     0.007504
AU160   AU        0.318811    0.470366    0.111502     0.007504
PD161   PD        0.319842    0.504147    0.075373     0.005394
AU162   AU        0.356163    0.470022    0.074557     0.007504
AU163   AU        0.353481    0.503497    0.111159     0.007504
AU164   AU        0.390318    0.470143    0.111572     0.007504
AU165   AU        0.391107    0.505934    0.075034     0.007504
AU166   AU        0.427896    0.469051    0.077831     0.007504
AU167   AU        0.426361    0.504881    0.111615     0.007504
AU168   AU        0.464114    0.470324    0.112455     0.007504
PD169   PD        0.463798    0.505602    0.076564     0.005394
AU170   AU        0.502001    0.469685    0.076296     0.007504
AU171   AU        0.500323    0.505258    0.111248     0.007504
AU172   AU        0.538901    0.468856    0.110681     0.007504
PD173   PD        0.536120    0.504658    0.076796     0.005394
PD174   PD        0.572148    0.468451    0.074223     0.005394
AU175   AU        0.572737    0.503697    0.112456     0.007504
AU176   AU        0.605823    0.470201    0.114248     0.007504
PD177   PD        0.608255    0.504595    0.076882     0.005394
PD178   PD        0.639490    0.469460    0.079553     0.005394
PD179   PD        0.640993    0.502653    0.114270     0.005394
PD180   PD        0.675051    0.467891    0.115889     0.005394
PD181   PD        0.674332    0.502373    0.077221     0.005394
PD182   PD        0.708309    0.500652    0.115010     0.005394
PD183   PD        0.177070    0.539683    0.111187     0.005394
PD184   PD        0.212899    0.541327    0.073971     0.005394
PD185   PD        0.214072    0.574285    0.111996     0.005394
PD186   PD        0.247190    0.539870    0.112860     0.005394
PD187   PD        0.249017    0.576288    0.076215     0.005394
PD188   PD        0.285044    0.539899    0.075867     0.005394
PD189   PD        0.286614    0.576626    0.111874     0.005394
AU190   AU        0.319236    0.539426    0.112596     0.007504
PD191   PD        0.319795    0.577049    0.076405     0.005394
AU192   AU        0.355827    0.540376    0.076419     0.007504
AU193   AU        0.354413    0.576241    0.111820     0.007504
AU194   AU        0.392195    0.539850    0.113109     0.007504
PD195   PD        0.393097    0.574981    0.077452     0.005394
PD196   PD        0.426802    0.541931    0.074446     0.005394
AU197   AU        0.427677    0.576130    0.115698     0.007504
AU198   AU        0.462185    0.540533    0.113071     0.007504
PD199   PD        0.462289    0.576209    0.078712     0.005394
AU200   AU        0.499481    0.541924    0.076962     0.007504
AU201   AU        0.498496    0.575235    0.113513     0.007504
AU202   AU        0.533599    0.540038    0.113501     0.007504
PD203   PD        0.534596    0.576342    0.079221     0.005394
PD204   PD        0.571809    0.539296    0.076819     0.005394
PD205   PD        0.570328    0.577465    0.113441     0.005394
PD206   PD        0.607292    0.538700    0.114338     0.005394
PD207   PD        0.608394    0.578095    0.077633     0.005394
PD208   PD        0.641934    0.542690    0.078495     0.005394
PD209   PD        0.641261    0.578445    0.113708     0.005394
PD210   PD        0.679404    0.540908    0.114468     0.005394
PD211   PD        0.177938    0.612811    0.114418     0.005394
PD212   PD        0.213315    0.647391    0.114235     0.005394
PD213   PD        0.247729    0.610258    0.114770     0.005394
PD214   PD        0.248988    0.646223    0.079818     0.005394
PD215   PD        0.282702    0.613588    0.079227     0.005394
PD216   PD        0.286915    0.651551    0.111696     0.005394
PD217   PD        0.321375    0.613773    0.112885     0.005394
PD218   PD        0.319251    0.647951    0.075550     0.005394
PD219   PD        0.354891    0.611802    0.075296     0.005394
PD220   PD        0.357940    0.650456    0.113794     0.005394
PD221   PD        0.387496    0.611585    0.112512     0.005394
PD222   PD        0.391413    0.652218    0.075914     0.005394
PD223   PD        0.427012    0.612055    0.077985     0.005394
PD224   PD        0.426408    0.651791    0.111765     0.005394
AU225   AU        0.462552    0.612404    0.112005     0.007504
PD226   PD        0.462243    0.647276    0.076635     0.005394
PD227   PD        0.499311    0.612511    0.079421     0.005394
PD228   PD        0.499051    0.648654    0.113595     0.005394
PD229   PD        0.535847    0.611336    0.114461     0.005394
PD230   PD        0.535902    0.645274    0.075245     0.005394
PD231   PD        0.570875    0.610576    0.077789     0.005394
PD232   PD        0.567462    0.649198    0.114473     0.005394
PD233   PD        0.604026    0.613570    0.114140     0.005394
PD234   PD        0.566889    0.683462    0.078011     0.005394
PD235   PD        0.642688    0.644989    0.117378     0.005394
PD236   PD        0.675979    0.612930    0.116159     0.005394
PD237   PD        0.247938    0.684865    0.112099     0.005394
PD238   PD        0.283378    0.717416    0.110444     0.005394
PD239   PD        0.322634    0.683089    0.114048     0.005394
PD240   PD        0.357084    0.683483    0.076527     0.005394
PD241   PD        0.355486    0.718174    0.117084     0.005394
PD242   PD        0.391396    0.684776    0.115064     0.005394
PD243   PD        0.391964    0.717400    0.076909     0.005394
PD244   PD        0.427346    0.687737    0.076374     0.005394
PD245   PD        0.425622    0.720340    0.115410     0.005394
PD246   PD        0.461884    0.685065    0.112553     0.005394
PD247   PD        0.465272    0.722154    0.076931     0.005394
PD248   PD        0.499820    0.681695    0.072991     0.005394
PD249   PD        0.499690    0.718466    0.111875     0.005394
PD250   PD        0.533928    0.683384    0.115935     0.005394
PD251   PD        0.571160    0.717042    0.116002     0.005394
PD252   PD        0.608096    0.681465    0.113530     0.005394
PD253   PD        0.392553    0.754227    0.115839     0.005394
PD254   PD        0.463426    0.758303    0.113024     0.005394
PD255   PD        0.282651    0.150810    0.188040     0.005394
PD256   PD        0.362669    0.149355    0.186453     0.005394
PD257   PD        0.388490    0.111779    0.188375     0.005394
PD258   PD        0.391682    0.151279    0.153265     0.005394
PD259   PD        0.424805    0.145461    0.188011     0.005394
PD260   PD        0.461720    0.080437    0.222786     0.005394
PD261   PD        0.463703    0.148650    0.151809     0.005394
PD262   PD        0.500729    0.149174    0.189436     0.005394
PD263   PD        0.569626    0.152258    0.192291     0.005394
PD264   PD        0.212101    0.221704    0.190310     0.005394
PD265   PD        0.247988    0.181527    0.187384     0.005394
PD266   PD        0.249740    0.219003    0.152258     0.005394
PD267   PD        0.284406    0.184909    0.153375     0.005394
PD268   PD        0.286570    0.218389    0.189965     0.005394
PD269   PD        0.321408    0.179521    0.188218     0.005394
PD270   PD        0.319656    0.217686    0.150535     0.005394
PD271   PD        0.360066    0.188479    0.149632     0.005394
AU272   AU        0.353432    0.219349    0.187983     0.007504
PD273   PD        0.392975    0.186283    0.191282     0.005394
PD274   PD        0.393749    0.219852    0.150393     0.005394
PD275   PD        0.429277    0.182701    0.151962     0.005394
PD276   PD        0.427039    0.220960    0.191608     0.005394
PD277   PD        0.462205    0.184591    0.193002     0.005394
PD278   PD        0.463938    0.217046    0.154225     0.005394
PD279   PD        0.496552    0.182339    0.152524     0.005394
PD280   PD        0.500843    0.219960    0.191589     0.005394
PD281   PD        0.533582    0.185104    0.190861     0.005394
PD282   PD        0.533726    0.219755    0.150405     0.005394
PD283   PD        0.570854    0.182999    0.153325     0.005394
PD284   PD        0.568183    0.220015    0.189151     0.005394
PD285   PD        0.606354    0.184485    0.190693     0.005394
PD286   PD        0.604028    0.219454    0.153489     0.005394
PD287   PD        0.642140    0.221065    0.190634     0.005394
PD288   PD        0.142150    0.291808    0.188422     0.005394
PD289   PD        0.174495    0.255057    0.189716     0.005394
PD290   PD        0.177150    0.292755    0.152997     0.005394
PD291   PD        0.212532    0.256660    0.151762     0.005394
PD292   PD        0.214090    0.289132    0.189170     0.005394
PD293   PD        0.249311    0.257150    0.189818     0.005394
PD294   PD        0.248711    0.290549    0.148667     0.005394
PD295   PD        0.283492    0.254972    0.152880     0.005394
AU296   AU        0.284056    0.289830    0.188257     0.007504
AU297   AU        0.320497    0.254275    0.190380     0.007504
PD298   PD        0.319717    0.289713    0.150889     0.005394
PD299   PD        0.354459    0.253727    0.150160     0.005394
AU300   AU        0.357868    0.291044    0.188594     0.007504
AU301   AU        0.392228    0.253512    0.190045     0.007504
AU302   AU        0.392306    0.288501    0.153199     0.007504
AU303   AU        0.427235    0.255761    0.152033     0.007504
AU304   AU        0.428505    0.290374    0.189515     0.007504
AU305   AU        0.464143    0.255087    0.187886     0.007504
AU306   AU        0.463627    0.289680    0.150757     0.007504
PD307   PD        0.501011    0.256936    0.151941     0.005394
AU308   AU        0.499913    0.289634    0.189390     0.007504
AU309   AU        0.536656    0.255481    0.190178     0.007504
PD310   PD        0.534755    0.291839    0.152720     0.005394
PD311   PD        0.571508    0.254889    0.151076     0.005394
AU312   AU        0.570877    0.288694    0.192746     0.007504
PD313   PD        0.607221    0.254331    0.189749     0.005394
PD314   PD        0.606209    0.285956    0.154027     0.005394
PD315   PD        0.642495    0.251809    0.150990     0.005394
PD316   PD        0.641316    0.288942    0.190325     0.005394
PD317   PD        0.677486    0.254822    0.185899     0.005394
PD318   PD        0.681700    0.291415    0.150817     0.005394
PD319   PD        0.713963    0.291403    0.189968     0.005394
PD320   PD        0.106830    0.328681    0.187383     0.005394
PD321   PD        0.139969    0.326170    0.151853     0.005394
PD322   PD        0.141967    0.363563    0.190679     0.005394
PD323   PD        0.175836    0.326328    0.190288     0.005394
PD324   PD        0.176205    0.361220    0.155237     0.005394
PD325   PD        0.213733    0.324381    0.151861     0.005394
AU326   AU        0.213714    0.361036    0.189941     0.007504
AU327   AU        0.248109    0.325110    0.189028     0.007504
AU328   AU        0.249078    0.360891    0.150589     0.007504
AU329   AU        0.285554    0.327245    0.154301     0.007504
AU330   AU        0.283446    0.362795    0.189009     0.007504
AU331   AU        0.320638    0.325322    0.189069     0.007504
AU332   AU        0.318090    0.363512    0.149902     0.007504
AU333   AU        0.355646    0.326508    0.151729     0.007504
AU334   AU        0.354789    0.361346    0.188915     0.007504
AU335   AU        0.391811    0.325562    0.189115     0.007504
AU336   AU        0.392474    0.362050    0.151397     0.007504
AU337   AU        0.426077    0.326233    0.149299     0.007504
AU338   AU        0.426114    0.361071    0.188268     0.007504
AU339   AU        0.462877    0.326433    0.185007     0.007504
AU340   AU        0.464569    0.361801    0.149980     0.007504
AU341   AU        0.501089    0.326751    0.150251     0.007504
AU342   AU        0.500516    0.362005    0.188590     0.007504
AU343   AU        0.537111    0.327080    0.188401     0.007504
AU344   AU        0.534728    0.362042    0.150523     0.007504
PD345   PD        0.570927    0.326333    0.151494     0.005394
AU346   AU        0.571294    0.362782    0.189568     0.007504
PD347   PD        0.604331    0.325422    0.188577     0.005394
PD348   PD        0.605418    0.362074    0.151520     0.005394
PD349   PD        0.641648    0.328482    0.152640     0.005394
PD350   PD        0.643332    0.360839    0.190464     0.005394
PD351   PD        0.676332    0.322669    0.187656     0.005394
PD352   PD        0.678148    0.360360    0.151177     0.005394
PD353   PD        0.714072    0.324759    0.149634     0.005394
PD354   PD        0.712462    0.359009    0.188528     0.005394
PD355   PD        0.749463    0.324550    0.192367     0.005394
PD356   PD        0.068574    0.431135    0.188309     0.005394
PD357   PD        0.102828    0.397138    0.189514     0.005394
PD358   PD        0.106018    0.434164    0.153624     0.005394
PD359   PD        0.139542    0.396415    0.150277     0.005394
PD360   PD        0.139735    0.429847    0.191009     0.005394
AU361   AU        0.176683    0.397936    0.191096     0.007504
PD362   PD        0.174406    0.431660    0.152245     0.005394
PD363   PD        0.210300    0.397300    0.151913     0.005394
AU364   AU        0.211688    0.432424    0.189668     0.007504
AU365   AU        0.247334    0.397905    0.188830     0.007504
AU366   AU        0.246953    0.432626    0.152511     0.007504
AU367   AU        0.280822    0.399225    0.149508     0.007504
AU368   AU        0.283459    0.433383    0.188586     0.007504
AU369   AU        0.320218    0.397927    0.188292     0.007504
AU370   AU        0.320034    0.433855    0.149482     0.007504
AU371   AU        0.355652    0.396212    0.148029     0.007504
AU372   AU        0.354364    0.433247    0.186994     0.007504
AU373   AU        0.391950    0.397591    0.189881     0.007504
AU374   AU        0.391170    0.434697    0.149186     0.007504
AU375   AU        0.428386    0.396776    0.150520     0.007504
AU376   AU        0.427791    0.433743    0.187834     0.007504
AU377   AU        0.463323    0.395590    0.188268     0.007504
AU378   AU        0.464876    0.433295    0.148504     0.007504
AU379   AU        0.498637    0.397346    0.149989     0.007504
AU380   AU        0.500168    0.432672    0.188789     0.007504
AU381   AU        0.536215    0.396720    0.190211     0.007504
AU382   AU        0.535607    0.434697    0.149859     0.007504
AU383   AU        0.570229    0.398917    0.150167     0.007504
AU384   AU        0.571243    0.434145    0.187724     0.007504
AU385   AU        0.606325    0.398823    0.190435     0.007504
AU386   AU        0.607297    0.435025    0.151181     0.007504
PD387   PD        0.641742    0.395940    0.153647     0.005394
AU388   AU        0.642012    0.433057    0.190629     0.007504
PD389   PD        0.681095    0.396751    0.185388     0.005394
PD390   PD        0.678519    0.433287    0.154197     0.005394
PD391   PD        0.717631    0.396915    0.150177     0.005394
PD392   PD        0.713900    0.433423    0.188434     0.005394
PD393   PD        0.751333    0.394782    0.190891     0.005394
PD394   PD        0.750228    0.430857    0.151822     0.005394
PD395   PD        0.783049    0.434576    0.187965     0.005394
PD396   PD        0.072914    0.470036    0.153701     0.005394
PD397   PD        0.105392    0.469057    0.188988     0.005394
PD398   PD        0.104297    0.505868    0.154982     0.005394
PD399   PD        0.138280    0.467384    0.151067     0.005394
PD400   PD        0.139921    0.504540    0.188295     0.005394
PD401   PD        0.175789    0.468707    0.186033     0.005394
PD402   PD        0.177506    0.507587    0.149814     0.005394
PD403   PD        0.214453    0.467315    0.152029     0.005394
AU404   AU        0.212059    0.507048    0.191659     0.007504
AU405   AU        0.248354    0.470270    0.189448     0.007504
AU406   AU        0.247396    0.506592    0.150197     0.007504
AU407   AU        0.283217    0.467801    0.148907     0.007504
AU408   AU        0.282617    0.503966    0.187705     0.007504
AU409   AU        0.318096    0.469949    0.187829     0.007504
AU410   AU        0.320491    0.504838    0.148881     0.007504
AU411   AU        0.353543    0.468969    0.150194     0.007504
AU412   AU        0.354562    0.506164    0.187845     0.007504
AU413   AU        0.389257    0.467948    0.187131     0.007504
AU414   AU        0.389802    0.505123    0.149762     0.007504
AU415   AU        0.427017    0.470211    0.148382     0.007504
AU416   AU        0.429219    0.506115    0.185754     0.007504
AU417   AU        0.461465    0.469547    0.187738     0.007504
AU418   AU        0.463428    0.505140    0.149936     0.007504
AU419   AU        0.499922    0.468161    0.151328     0.007504
AU420   AU        0.498399    0.505656    0.189146     0.007504
AU421   AU        0.538286    0.469463    0.187606     0.007504
AU422   AU        0.535345    0.503496    0.147978     0.007504
AU423   AU        0.571459    0.469317    0.149620     0.007504
AU424   AU        0.573242    0.504522    0.189139     0.007504
AU425   AU        0.607929    0.470799    0.188876     0.007504
AU426   AU        0.607223    0.503989    0.151102     0.007504
AU427   AU        0.642081    0.468622    0.151769     0.007504
AU428   AU        0.643112    0.505426    0.187882     0.007504
PD429   PD        0.678328    0.469952    0.189281     0.005394
PD430   PD        0.675654    0.506247    0.151277     0.005394
PD431   PD        0.714916    0.467340    0.151108     0.005394
PD432   PD        0.710045    0.503318    0.187917     0.005394
PD433   PD        0.747821    0.469152    0.189382     0.005394
PD434   PD        0.747352    0.503096    0.149485     0.005394
PD435   PD        0.784417    0.502627    0.188943     0.005394
PD436   PD        0.109779    0.542192    0.188888     0.005394
PD437   PD        0.141627    0.538441    0.151405     0.005394
PD438   PD        0.141256    0.578295    0.187180     0.005394
PD439   PD        0.176217    0.543355    0.188586     0.005394
PD440   PD        0.175947    0.580131    0.151440     0.005394
PD441   PD        0.211059    0.542124    0.154192     0.005394
AU442   AU        0.211559    0.578278    0.191742     0.007504
AU443   AU        0.247417    0.541140    0.187853     0.007504
PD444   PD        0.246574    0.575244    0.151398     0.005394
AU445   AU        0.284148    0.541966    0.148749     0.007504
AU446   AU        0.285296    0.578037    0.188723     0.007504
AU447   AU        0.318879    0.540534    0.187805     0.007504
AU448   AU        0.320022    0.576448    0.149623     0.007504
AU449   AU        0.355325    0.540818    0.147892     0.007504
AU450   AU        0.355231    0.576347    0.186583     0.007504
AU451   AU        0.388469    0.541175    0.186564     0.007504
AU452   AU        0.388877    0.575088    0.149313     0.007504
AU453   AU        0.425757    0.540633    0.150429     0.007504
AU454   AU        0.426086    0.578194    0.186659     0.007504
AU455   AU        0.462232    0.541580    0.185499     0.007504
AU456   AU        0.464555    0.578113    0.149244     0.007504
AU457   AU        0.499698    0.541551    0.148858     0.007504
AU458   AU        0.499983    0.578803    0.188613     0.007504
AU459   AU        0.536746    0.539850    0.188035     0.007504
AU460   AU        0.535920    0.576322    0.150182     0.007504
AU461   AU        0.570960    0.539036    0.148888     0.007504
AU462   AU        0.570813    0.576132    0.187410     0.007504
AU463   AU        0.608880    0.540505    0.188282     0.007504
AU464   AU        0.604641    0.577118    0.150973     0.007504
AU465   AU        0.642620    0.541833    0.149239     0.007504
AU466   AU        0.644058    0.575874    0.188660     0.007504
AU467   AU        0.679490    0.539107    0.188993     0.007504
PD468   PD        0.679556    0.573896    0.153355     0.005394
PD469   PD        0.712636    0.538716    0.150404     0.005394
PD470   PD        0.711914    0.577550    0.189955     0.005394
PD471   PD        0.747677    0.536541    0.188963     0.005394
PD472   PD        0.107831    0.612337    0.191837     0.005394
PD473   PD        0.141403    0.614118    0.149795     0.005394
PD474   PD        0.142667    0.646670    0.191688     0.005394
PD475   PD        0.175816    0.611851    0.189638     0.005394
PD476   PD        0.175813    0.650597    0.148108     0.005394
PD477   PD        0.211780    0.614711    0.152880     0.005394
PD478   PD        0.212265    0.646575    0.191750     0.005394
AU479   AU        0.247299    0.612202    0.190845     0.007504
PD480   PD        0.248662    0.649386    0.151434     0.005394
PD481   PD        0.281747    0.612388    0.150989     0.005394
AU482   AU        0.282817    0.647217    0.190786     0.007504
AU483   AU        0.319844    0.613675    0.188944     0.007504
PD484   PD        0.320486    0.647917    0.151613     0.005394
AU485   AU        0.354793    0.612240    0.151261     0.007504
AU486   AU        0.354911    0.649656    0.188017     0.007504
AU487   AU        0.391201    0.614600    0.186140     0.007504
AU488   AU        0.390969    0.651043    0.150623     0.007504
PD489   PD        0.427518    0.612238    0.150691     0.005394
AU490   AU        0.426849    0.650518    0.189640     0.007504
AU491   AU        0.462266    0.614500    0.187345     0.007504
AU492   AU        0.464740    0.650318    0.149413     0.007504
AU493   AU        0.498139    0.613059    0.150865     0.007504
AU494   AU        0.499192    0.648046    0.187385     0.007504
AU495   AU        0.535663    0.613599    0.186701     0.007504
AU496   AU        0.533535    0.647813    0.151293     0.007504
AU497   AU        0.570911    0.611738    0.151419     0.007504
AU498   AU        0.569795    0.647572    0.186913     0.007504
AU499   AU        0.606102    0.611558    0.188661     0.007504
PD500   PD        0.603944    0.648502    0.150723     0.005394
PD501   PD        0.639840    0.609209    0.151313     0.005394
PD502   PD        0.642682    0.647413    0.187974     0.005394
PD503   PD        0.679304    0.613181    0.190581     0.005394
PD504   PD        0.676581    0.649239    0.152725     0.005394
PD505   PD        0.711201    0.614222    0.153507     0.005394
PD506   PD        0.711270    0.651568    0.188863     0.005394
PD507   PD        0.743333    0.615727    0.187372     0.005394
PD508   PD        0.181570    0.683087    0.186224     0.005394
PD509   PD        0.215908    0.686884    0.150048     0.005394
PD510   PD        0.215616    0.716390    0.188850     0.005394
PD511   PD        0.249001    0.683941    0.189682     0.005394
PD512   PD        0.249695    0.719216    0.151344     0.005394
PD513   PD        0.285232    0.684980    0.151371     0.005394
PD514   PD        0.284644    0.719875    0.190187     0.005394
AU515   AU        0.321649    0.686112    0.189688     0.007504
PD516   PD        0.319050    0.720492    0.150182     0.005394
AU517   AU        0.354783    0.684635    0.152120     0.007504
AU518   AU        0.355445    0.719819    0.187871     0.007504
AU519   AU        0.390336    0.683749    0.188719     0.007504
PD520   PD        0.391268    0.719598    0.151044     0.005394
AU521   AU        0.427918    0.685076    0.150191     0.007504
AU522   AU        0.429363    0.718736    0.189175     0.007504
AU523   AU        0.464678    0.684710    0.191107     0.007504
PD524   PD        0.462680    0.719034    0.149000     0.005394
PD525   PD        0.499712    0.686649    0.151119     0.005394
PD526   PD        0.500697    0.719065    0.188392     0.005394
AU527   AU        0.536277    0.684014    0.189656     0.007504
PD528   PD        0.537380    0.721160    0.150213     0.005394
PD529   PD        0.569606    0.683229    0.152029     0.005394
PD530   PD        0.569317    0.719115    0.189154     0.005394
PD531   PD        0.606474    0.681591    0.189614     0.005394
PD532   PD        0.605576    0.716490    0.150505     0.005394
PD533   PD        0.642215    0.682017    0.149241     0.005394
PD534   PD        0.641279    0.719816    0.186317     0.005394
PD535   PD        0.675577    0.683052    0.190115     0.005394
PD536   PD        0.248124    0.756954    0.187272     0.005394
PD537   PD        0.282574    0.751673    0.147070     0.005394
PD538   PD        0.284839    0.785787    0.187257     0.005394
PD539   PD        0.318057    0.755819    0.190180     0.005394
PD540   PD        0.353019    0.755090    0.149281     0.005394
PD541   PD        0.353284    0.789935    0.187033     0.005394
PD542   PD        0.389911    0.752303    0.188391     0.005394
PD543   PD        0.391124    0.792253    0.153885     0.005394
PD544   PD        0.426332    0.754102    0.150820     0.005394
PD545   PD        0.423551    0.836496    0.154370     0.005394
PD546   PD        0.465564    0.753873    0.188587     0.005394
PD547   PD        0.458187    0.792612    0.152620     0.005394
PD548   PD        0.500852    0.751494    0.150874     0.005394
PD549   PD        0.498521    0.790610    0.191769     0.005394
PD550   PD        0.536390    0.755018    0.191683     0.005394
PD551   PD        0.573567    0.753606    0.153835     0.005394
PD552   PD        0.570179    0.787321    0.190361     0.005394
PD553   PD        0.603549    0.752051    0.191990     0.005394
PD554   PD        0.388923    0.828079    0.186981     0.005394
PD555   PD        0.465185    0.824689    0.190915     0.005394
PD556   PD        0.356706    0.077314    0.267802     0.005394
PD557   PD        0.430391    0.080603    0.263127     0.005394
PD558   PD        0.533542    0.079001    0.304323     0.005394
PD559   PD        0.215829    0.150700    0.265855     0.005394
PD560   PD        0.249436    0.117074    0.268621     0.005394
PD561   PD        0.250691    0.148774    0.229189     0.005394
PD562   PD        0.286062    0.146514    0.263075     0.005394
PD563   PD        0.321695    0.114734    0.265277     0.005394
PD564   PD        0.323884    0.148231    0.228993     0.005394
PD565   PD        0.356519    0.115733    0.228861     0.005394
PD566   PD        0.357026    0.148090    0.267347     0.005394
PD567   PD        0.391692    0.113859    0.266369     0.005394
PD568   PD        0.391870    0.150392    0.227899     0.005394
PD569   PD        0.425608    0.112997    0.227539     0.005394
AU570   AU        0.426671    0.146656    0.263617     0.007504
PD571   PD        0.463765    0.114083    0.266904     0.005394
PD572   PD        0.463874    0.148464    0.230200     0.005394
PD573   PD        0.501367    0.115703    0.231152     0.005394
PD574   PD        0.500407    0.152208    0.266014     0.005394
PD575   PD        0.535950    0.113139    0.265400     0.005394
PD576   PD        0.535068    0.148893    0.227131     0.005394
PD577   PD        0.573176    0.149496    0.267003     0.005394
PD578   PD        0.603595    0.111924    0.262311     0.005394
PD579   PD        0.606095    0.148099    0.228337     0.005394
PD580   PD        0.640229    0.146834    0.266178     0.005394
PD581   PD        0.144416    0.220928    0.267922     0.005394
PD582   PD        0.175659    0.185481    0.270705     0.005394
PD583   PD        0.174448    0.220727    0.226440     0.005394
PD584   PD        0.213592    0.182008    0.231130     0.005394
PD585   PD        0.212391    0.217401    0.266009     0.005394
PD586   PD        0.249546    0.182907    0.265254     0.005394
PD587   PD        0.250468    0.216614    0.224005     0.005394
PD588   PD        0.285237    0.182299    0.226477     0.005394
AU589   AU        0.285756    0.218744    0.265590     0.007504
AU590   AU        0.320876    0.184712    0.263580     0.007504
AU591   AU        0.320713    0.218190    0.227430     0.007504
PD592   PD        0.355608    0.185055    0.227690     0.005394
AU593   AU        0.355688    0.216626    0.267463     0.007504
AU594   AU        0.393733    0.183677    0.265104     0.007504
AU595   AU        0.389628    0.219227    0.227075     0.007504
PD596   PD        0.429540    0.182745    0.229657     0.005394
AU597   AU        0.427703    0.218429    0.265782     0.007504
AU598   AU        0.463774    0.183478    0.266233     0.007504
AU599   AU        0.462132    0.219674    0.228018     0.007504
PD600   PD        0.501503    0.183324    0.229806     0.005394
AU601   AU        0.500030    0.217076    0.264333     0.007504
AU602   AU        0.536922    0.185538    0.266471     0.007504
AU603   AU        0.535858    0.219021    0.228121     0.007504
PD604   PD        0.568707    0.184584    0.227799     0.005394
AU605   AU        0.572800    0.217730    0.265885     0.007504
PD606   PD        0.607346    0.181913    0.266142     0.005394
PD607   PD        0.606753    0.219240    0.231968     0.005394
PD608   PD        0.643463    0.182239    0.228977     0.005394
PD609   PD        0.642922    0.220634    0.265628     0.005394
PD610   PD        0.677005    0.187337    0.266304     0.005394
PD611   PD        0.680229    0.216448    0.228334     0.005394
PD612   PD        0.714630    0.215782    0.266540     0.005394
PD613   PD        0.064593    0.294454    0.261671     0.005394
PD614   PD        0.106353    0.250995    0.262586     0.005394
PD615   PD        0.107674    0.290129    0.225037     0.005394
PD616   PD        0.141094    0.254194    0.227545     0.005394
PD617   PD        0.139659    0.290467    0.267827     0.005394
PD618   PD        0.178491    0.255111    0.264754     0.005394
PD619   PD        0.177959    0.293530    0.226119     0.005394
PD620   PD        0.214239    0.252727    0.226981     0.005394
PD621   PD        0.212382    0.292263    0.262841     0.005394
PD622   PD        0.249828    0.252416    0.265521     0.005394
AU623   AU        0.248583    0.292114    0.228130     0.007504
AU624   AU        0.284357    0.253610    0.226987     0.007504
AU625   AU        0.283917    0.286986    0.264517     0.007504
AU626   AU        0.320224    0.254997    0.264404     0.007504
AU627   AU        0.318456    0.290052    0.224633     0.007504
AU628   AU        0.356705    0.253428    0.225610     0.007504
AU629   AU        0.354278    0.289839    0.264334     0.007504
AU630   AU        0.392198    0.252407    0.263572     0.007504
AU631   AU        0.392208    0.288493    0.225846     0.007504
AU632   AU        0.426804    0.254683    0.227935     0.007504
AU633   AU        0.428978    0.289167    0.265807     0.007504
AU634   AU        0.465620    0.252238    0.265777     0.007504
AU635   AU        0.462128    0.290616    0.226703     0.007504
AU636   AU        0.501561    0.253902    0.227466     0.007504
AU637   AU        0.502764    0.288082    0.267161     0.007504
AU638   AU        0.536131    0.253138    0.265134     0.007504
AU639   AU        0.535472    0.288267    0.228051     0.007504
AU640   AU        0.571619    0.253651    0.228490     0.007504
AU641   AU        0.572535    0.288128    0.266785     0.007504
AU642   AU        0.606549    0.254842    0.268465     0.007504
AU643   AU        0.605366    0.289192    0.230772     0.007504
PD644   PD        0.641511    0.254549    0.228351     0.005394
AU645   AU        0.643207    0.288342    0.267812     0.007504
PD646   PD        0.680167    0.253003    0.265438     0.005394
PD647   PD        0.679794    0.289976    0.229484     0.005394
PD648   PD        0.714563    0.256027    0.228275     0.005394
PD649   PD        0.714029    0.291218    0.265831     0.005394
PD650   PD        0.748155    0.253360    0.269472     0.005394
PD651   PD        0.748814    0.289771    0.232313     0.005394
PD652   PD        0.784578    0.252642    0.303250     0.005394
PD653   PD        0.067467    0.360914    0.267682     0.005394
PD654   PD        0.072433    0.324152    0.229728     0.005394
PD655   PD        0.102738    0.362866    0.226776     0.005394
PD656   PD        0.140371    0.328869    0.225807     0.005394
PD657   PD        0.139441    0.361898    0.269848     0.005394
PD658   PD        0.176584    0.328214    0.265632     0.005394
PD659   PD        0.179898    0.362899    0.226424     0.005394
AU660   AU        0.213559    0.326437    0.227423     0.007504
AU661   AU        0.214519    0.361231    0.266860     0.007504
AU662   AU        0.249668    0.325158    0.264224     0.007504
AU663   AU        0.249503    0.362419    0.226176     0.007504
AU664   AU        0.284244    0.326789    0.225323     0.007504
AU665   AU        0.282160    0.361619    0.268272     0.007504
AU666   AU        0.317732    0.322894    0.265618     0.007504
AU667   AU        0.319780    0.361671    0.225045     0.007504
AU668   AU        0.354268    0.326460    0.225635     0.007504
AU669   AU        0.353814    0.360559    0.264127     0.007504
AU670   AU        0.389793    0.325407    0.263576     0.007504
AU671   AU        0.392193    0.359937    0.226349     0.007504
AU672   AU        0.427560    0.325711    0.225684     0.007504
AU673   AU        0.427374    0.361006    0.267569     0.007504
AU674   AU        0.464016    0.325413    0.271226     0.007504
AU675   AU        0.463115    0.361654    0.226771     0.007504
AU676   AU        0.500778    0.327139    0.224960     0.007504
AU677   AU        0.501463    0.362718    0.264771     0.007504
AU678   AU        0.533731    0.326155    0.265012     0.007504
AU679   AU        0.535390    0.363576    0.226766     0.007504
AU680   AU        0.570216    0.327433    0.228719     0.007504
AU681   AU        0.572213    0.362854    0.266130     0.007504
AU682   AU        0.607964    0.325781    0.265026     0.007504
AU683   AU        0.605939    0.360913    0.227434     0.007504
PD684   PD        0.641369    0.323725    0.228794     0.005394
AU685   AU        0.644414    0.361469    0.264741     0.007504
AU686   AU        0.679412    0.324882    0.266747     0.007504
PD687   PD        0.680703    0.366540    0.230674     0.005394
PD688   PD        0.712314    0.326582    0.227996     0.005394
PD689   PD        0.714444    0.363089    0.266509     0.005394
PD690   PD        0.753760    0.323851    0.268945     0.005394
PD691   PD        0.753327    0.360759    0.228367     0.005394
PD692   PD        0.783515    0.365272    0.266644     0.005394
PD693   PD        0.029532    0.396501    0.272948     0.005394
PD694   PD        0.067382    0.397449    0.223722     0.005394
PD695   PD        0.068555    0.430849    0.265997     0.005394
PD696   PD        0.103137    0.397308    0.266858     0.005394
PD697   PD        0.103069    0.433691    0.226366     0.005394
PD698   PD        0.141006    0.395938    0.228132     0.005394
PD699   PD        0.140394    0.431691    0.264122     0.005394
AU700   AU        0.177740    0.397188    0.265811     0.007504
AU701   AU        0.176960    0.433044    0.226717     0.007504
AU702   AU        0.212608    0.396919    0.225921     0.007504
AU703   AU        0.212037    0.432186    0.264088     0.007504
AU704   AU        0.247451    0.398617    0.264301     0.007504
AU705   AU        0.246688    0.432728    0.226170     0.007504
AU706   AU        0.284324    0.396621    0.227275     0.007504
AU707   AU        0.280974    0.433479    0.264222     0.007504
AU708   AU        0.317895    0.397332    0.266450     0.007504
AU709   AU        0.320366    0.434664    0.224539     0.007504
AU710   AU        0.352892    0.396691    0.227355     0.007504
AU711   AU        0.354752    0.433190    0.264852     0.007504
AU712   AU        0.389357    0.396227    0.263897     0.007504
AU713   AU        0.389856    0.433241    0.226419     0.007504
AU714   AU        0.427313    0.396925    0.226073     0.007504
AU715   AU        0.426350    0.434658    0.264492     0.007504
AU716   AU        0.464204    0.398004    0.267125     0.007504
AU717   AU        0.464946    0.432533    0.225580     0.007504
AU718   AU        0.501865    0.398933    0.226960     0.007504
AU719   AU        0.499376    0.431424    0.266207     0.007504
AU720   AU        0.535019    0.397731    0.267063     0.007504
AU721   AU        0.536573    0.431444    0.227102     0.007504
AU722   AU        0.571363    0.398646    0.228431     0.007504
AU723   AU        0.570872    0.432504    0.267918     0.007504
AU724   AU        0.607793    0.399017    0.265400     0.007504
AU725   AU        0.609114    0.435621    0.226755     0.007504
AU726   AU        0.642107    0.397722    0.228015     0.007504
AU727   AU        0.642421    0.433121    0.263683     0.007504
AU728   AU        0.678435    0.400048    0.266507     0.007504
AU729   AU        0.677853    0.433599    0.226152     0.007504
PD730   PD        0.717542    0.398414    0.228333     0.005394
AU731   AU        0.714643    0.433989    0.265934     0.007504
PD732   PD        0.748037    0.398347    0.267739     0.005394
PD733   PD        0.751162    0.429654    0.226146     0.005394
PD734   PD        0.785402    0.396474    0.224080     0.005394
PD735   PD        0.781573    0.432268    0.265836     0.005394
PD736   PD        0.817876    0.399187    0.265617     0.005394
PD737   PD        0.035337    0.470168    0.268219     0.005394
PD738   PD        0.071965    0.467869    0.225874     0.005394
PD739   PD        0.072395    0.504415    0.269518     0.005394
PD740   PD        0.106076    0.469388    0.262486     0.005394
PD741   PD        0.103433    0.504026    0.224620     0.005394
PD742   PD        0.142735    0.468538    0.225873     0.005394
PD743   PD        0.141608    0.506464    0.266623     0.005394
AU744   AU        0.178472    0.468587    0.262939     0.007504
PD745   PD        0.177044    0.504794    0.226004     0.005394
AU746   AU        0.212662    0.469489    0.227383     0.007504
AU747   AU        0.213092    0.504873    0.264901     0.007504
AU748   AU        0.247336    0.469072    0.265813     0.007504
AU749   AU        0.249483    0.506145    0.226022     0.007504
AU750   AU        0.282704    0.470038    0.227878     0.007504
AU751   AU        0.280991    0.505088    0.267462     0.007504
AU752   AU        0.318546    0.469863    0.266154     0.007504
AU753   AU        0.318053    0.504363    0.225943     0.007504
AU754   AU        0.354595    0.470628    0.226079     0.007504
AU755   AU        0.355419    0.504846    0.264164     0.007504
AU756   AU        0.390082    0.469747    0.267101     0.007504
AU757   AU        0.391769    0.503681    0.225819     0.007504
AU758   AU        0.425631    0.467201    0.225851     0.007504
AU759   AU        0.426461    0.505755    0.266289     0.007504
AU760   AU        0.462205    0.468632    0.266273     0.007504
AU761   AU        0.461587    0.506413    0.226705     0.007504
AU762   AU        0.500638    0.467250    0.227423     0.007504
AU763   AU        0.501247    0.503070    0.263924     0.007504
AU764   AU        0.536273    0.468692    0.264334     0.007504
AU765   AU        0.535755    0.505597    0.225439     0.007504
AU766   AU        0.572641    0.472050    0.227625     0.007504
AU767   AU        0.572871    0.506205    0.266180     0.007504
AU768   AU        0.609122    0.467870    0.264836     0.007504
AU769   AU        0.609124    0.506169    0.228747     0.007504
AU770   AU        0.642904    0.469134    0.225503     0.007504
AU771   AU        0.644167    0.505649    0.267170     0.007504
AU772   AU        0.678232    0.467660    0.265048     0.007504
AU773   AU        0.677536    0.503556    0.226016     0.007504
PD774   PD        0.714145    0.467228    0.226710     0.005394
PD775   PD        0.713464    0.501013    0.263572     0.005394
PD776   PD        0.748358    0.468574    0.266655     0.005394
PD777   PD        0.750401    0.502317    0.228035     0.005394
PD778   PD        0.786163    0.469997    0.227166     0.005394
PD779   PD        0.786468    0.504909    0.267940     0.005394
PD780   PD        0.816237    0.466486    0.267827     0.005394
PD781   PD        0.028889    0.544644    0.193393     0.005394
PD782   PD        0.070124    0.538448    0.227776     0.005394
PD783   PD        0.073045    0.577108    0.269519     0.005394
PD784   PD        0.106270    0.538777    0.265782     0.005394
PD785   PD        0.105331    0.575568    0.229128     0.005394
PD786   PD        0.142108    0.543448    0.226604     0.005394
PD787   PD        0.140987    0.578425    0.268567     0.005394
AU788   AU        0.177972    0.544852    0.264995     0.007504
AU789   AU        0.176903    0.578623    0.228195     0.007504
AU790   AU        0.212358    0.541851    0.227293     0.007504
AU791   AU        0.212050    0.579317    0.265717     0.007504
AU792   AU        0.246336    0.542271    0.265616     0.007504
AU793   AU        0.248061    0.577263    0.226611     0.007504
AU794   AU        0.283495    0.542928    0.226235     0.007504
AU795   AU        0.283189    0.580734    0.265976     0.007504
AU796   AU        0.318282    0.540442    0.266918     0.007504
AU797   AU        0.320281    0.577351    0.224948     0.007504
AU798   AU        0.354296    0.540596    0.226476     0.007504
AU799   AU        0.355282    0.578031    0.266361     0.007504
AU800   AU        0.390685    0.540978    0.265396     0.007504
AU801   AU        0.388641    0.579488    0.226448     0.007504
AU802   AU        0.427456    0.542461    0.226510     0.007504
AU803   AU        0.426066    0.578517    0.265121     0.007504
AU804   AU        0.463730    0.539877    0.265681     0.007504
AU805   AU        0.462979    0.577900    0.224977     0.007504
AU806   AU        0.496682    0.540559    0.225337     0.007504
AU807   AU        0.501607    0.577280    0.264588     0.007504
AU808   AU        0.537044    0.541758    0.264693     0.007504
AU809   AU        0.533673    0.577281    0.224212     0.007504
AU810   AU        0.572799    0.540365    0.225596     0.007504
AU811   AU        0.571362    0.574964    0.263835     0.007504
AU812   AU        0.610610    0.540076    0.266192     0.007504
AU813   AU        0.608251    0.577099    0.226656     0.007504
AU814   AU        0.643811    0.543358    0.227213     0.007504
AU815   AU        0.645524    0.577060    0.265672     0.007504
AU816   AU        0.678490    0.541789    0.262027     0.007504
AU817   AU        0.679328    0.575580    0.225499     0.007504
PD818   PD        0.713730    0.542102    0.226857     0.005394
PD819   PD        0.711455    0.577870    0.264240     0.005394
PD820   PD        0.754534    0.545297    0.269803     0.005394
PD821   PD        0.747305    0.575889    0.227787     0.005394
PD822   PD        0.781151    0.543103    0.226597     0.005394
PD823   PD        0.787103    0.575519    0.265753     0.005394
PD824   PD        0.817591    0.539307    0.256834     0.005394
PD825   PD        0.070196    0.650619    0.265756     0.005394
PD826   PD        0.107696    0.613950    0.270681     0.005394
PD827   PD        0.107150    0.647682    0.227293     0.005394
PD828   PD        0.141305    0.612293    0.228846     0.005394
PD829   PD        0.142660    0.647588    0.267845     0.005394
AU830   AU        0.177709    0.614778    0.264409     0.007504
PD831   PD        0.176897    0.647337    0.226616     0.005394
AU832   AU        0.213236    0.611731    0.228679     0.007504
AU833   AU        0.213074    0.648566    0.266339     0.007504
AU834   AU        0.248334    0.613383    0.264719     0.007504
AU835   AU        0.246482    0.647310    0.227115     0.007504
AU836   AU        0.284105    0.613817    0.226764     0.007504
AU837   AU        0.282002    0.649444    0.266645     0.007504
AU838   AU        0.317438    0.613806    0.265651     0.007504
AU839   AU        0.319723    0.650653    0.227099     0.007504
AU840   AU        0.353366    0.614620    0.226400     0.007504
AU841   AU        0.353291    0.650219    0.267276     0.007504
AU842   AU        0.393418    0.615452    0.266299     0.007504
AU843   AU        0.390447    0.650315    0.227267     0.007504
AU844   AU        0.428508    0.613897    0.226085     0.007504
AU845   AU        0.426958    0.649966    0.265196     0.007504
AU846   AU        0.462909    0.615585    0.263715     0.007504
AU847   AU        0.463279    0.650187    0.227517     0.007504
AU848   AU        0.499429    0.613779    0.227359     0.007504
AU849   AU        0.499423    0.651977    0.268118     0.007504
AU850   AU        0.533992    0.613187    0.265086     0.007504
AU851   AU        0.535510    0.649124    0.227511     0.007504
AU852   AU        0.569520    0.611500    0.222790     0.007504
AU853   AU        0.570763    0.646727    0.263825     0.007504
AU854   AU        0.607249    0.612370    0.262221     0.007504
AU855   AU        0.607530    0.647492    0.225397     0.007504
AU856   AU        0.643965    0.611491    0.226815     0.007504
AU857   AU        0.642067    0.646102    0.264527     0.007504
AU858   AU        0.678849    0.611805    0.263375     0.007504
PD859   PD        0.677779    0.648482    0.225465     0.005394
PD860   PD        0.714007    0.613164    0.225777     0.005394
PD861   PD        0.714240    0.645771    0.267133     0.005394
PD862   PD        0.744423    0.611423    0.264017     0.005394
PD863   PD        0.750785    0.644451    0.226532     0.005394
PD864   PD        0.781927    0.642429    0.265137     0.005394
PD865   PD        0.110836    0.684670    0.263136     0.005394
PD866   PD        0.142687    0.680423    0.227197     0.005394
PD867   PD        0.143174    0.718598    0.266383     0.005394
PD868   PD        0.179342    0.683911    0.266526     0.005394
PD869   PD        0.176129    0.719950    0.228884     0.005394
PD870   PD        0.214206    0.684612    0.226729     0.005394
PD871   PD        0.212702    0.721164    0.266883     0.005394
AU872   AU        0.250186    0.684960    0.265459     0.007504
PD873   PD        0.248010    0.721395    0.228685     0.005394
AU874   AU        0.282647    0.684107    0.227957     0.007504
AU875   AU        0.284329    0.718345    0.267159     0.007504
AU876   AU        0.319531    0.684025    0.266181     0.007504
AU877   AU        0.319363    0.718353    0.228333     0.007504
AU878   AU        0.356377    0.685577    0.226157     0.007504
AU879   AU        0.353676    0.720335    0.266749     0.007504
AU880   AU        0.389407    0.686676    0.264776     0.007504
AU881   AU        0.392924    0.720077    0.225797     0.007504
AU882   AU        0.427264    0.685524    0.227132     0.007504
AU883   AU        0.428391    0.721187    0.265017     0.007504
AU884   AU        0.465396    0.685019    0.266042     0.007504
AU885   AU        0.465436    0.718534    0.228626     0.007504
AU886   AU        0.500534    0.683516    0.228596     0.007504
AU887   AU        0.500329    0.718791    0.264227     0.007504
AU888   AU        0.535716    0.685925    0.266695     0.007504
AU889   AU        0.535636    0.718007    0.226767     0.007504
AU890   AU        0.570136    0.684655    0.227168     0.007504
AU891   AU        0.570209    0.719753    0.264393     0.007504
PD892   PD        0.607852    0.683698    0.264886     0.005394
PD893   PD        0.608667    0.719644    0.229522     0.005394
PD894   PD        0.643347    0.683731    0.226649     0.005394
PD895   PD        0.644865    0.717850    0.265872     0.005394
PD896   PD        0.678870    0.679511    0.264700     0.005394
PD897   PD        0.675918    0.717612    0.227484     0.005394
PD898   PD        0.711383    0.680410    0.230279     0.005394
PD899   PD        0.712091    0.717075    0.265258     0.005394
PD900   PD        0.747269    0.679602    0.264851     0.005394
PD901   PD        0.178662    0.753932    0.267637     0.005394
PD902   PD        0.211188    0.754038    0.223244     0.005394
PD903   PD        0.208842    0.792737    0.266031     0.005394
PD904   PD        0.246991    0.756274    0.266180     0.005394
PD905   PD        0.253011    0.792307    0.227260     0.005394
PD906   PD        0.283356    0.755914    0.229008     0.005394
PD907   PD        0.284934    0.791827    0.265832     0.005394
PD908   PD        0.317142    0.754816    0.264228     0.005394
PD909   PD        0.320531    0.789673    0.229418     0.005394
PD910   PD        0.353970    0.752679    0.227478     0.005394
PD911   PD        0.356181    0.793186    0.268273     0.005394
PD912   PD        0.392027    0.756387    0.266825     0.005394
PD913   PD        0.387898    0.787922    0.225583     0.005394
PD914   PD        0.429558    0.755033    0.227601     0.005394
PD915   PD        0.430429    0.792638    0.269388     0.005394
PD916   PD        0.466523    0.754327    0.265462     0.005394
PD917   PD        0.465576    0.791977    0.230628     0.005394
PD918   PD        0.500739    0.754776    0.227970     0.005394
PD919   PD        0.500753    0.793195    0.267715     0.005394
PD920   PD        0.535988    0.752661    0.265987     0.005394
PD921   PD        0.534345    0.790606    0.230080     0.005394
PD922   PD        0.569546    0.754706    0.228900     0.005394
PD923   PD        0.571215    0.793249    0.267969     0.005394
PD924   PD        0.607211    0.752745    0.267964     0.005394
PD925   PD        0.606035    0.789303    0.227927     0.005394
PD926   PD        0.640797    0.755966    0.225151     0.005394
PD927   PD        0.639479    0.788573    0.266098     0.005394
PD928   PD        0.750788    0.743280    0.248307     0.005394
PD929   PD        0.248931    0.823672    0.264704     0.005394
PD930   PD        0.319592    0.826842    0.267900     0.005394
PD931   PD        0.356264    0.826264    0.226846     0.005394
PD932   PD        0.355197    0.858829    0.270138     0.005394
PD933   PD        0.391206    0.829537    0.265972     0.005394
PD934   PD        0.425019    0.829291    0.228574     0.005394
PD935   PD        0.429575    0.859491    0.268780     0.005394
PD936   PD        0.464987    0.826295    0.268744     0.005394
PD937   PD        0.497740    0.827866    0.230468     0.005394
PD938   PD        0.502320    0.862987    0.268146     0.005394
PD939   PD        0.537062    0.825465    0.267893     0.005394
PD940   PD        0.574384    0.831577    0.229198     0.005394
PD941   PD        0.283712    0.080526    0.340936     0.005394
PD942   PD        0.321945    0.078188    0.306160     0.005394
PD943   PD        0.354377    0.081548    0.344157     0.005394
PD944   PD        0.393256    0.080477    0.300775     0.005394
PD945   PD        0.428260    0.083102    0.346271     0.005394
PD946   PD        0.462026    0.079729    0.304857     0.005394
PD947   PD        0.498440    0.076919    0.337867     0.005394
PD948   PD        0.572393    0.075429    0.263469     0.005394
PD949   PD        0.568011    0.076518    0.338498     0.005394
PD950   PD        0.146728    0.146860    0.341523     0.005394
PD951   PD        0.212076    0.150730    0.343567     0.005394
PD952   PD        0.245584    0.116716    0.342781     0.005394
PD953   PD        0.247698    0.149864    0.304077     0.005394
PD954   PD        0.283775    0.116214    0.306999     0.005394
PD955   PD        0.282153    0.149511    0.342713     0.005394
PD956   PD        0.321309    0.114585    0.344585     0.005394
PD957   PD        0.320347    0.149427    0.302909     0.005394
PD958   PD        0.356444    0.114571    0.302434     0.005394
PD959   PD        0.354785    0.150852    0.342600     0.005394
PD960   PD        0.390071    0.113114    0.338685     0.005394
AU961   AU        0.394183    0.150464    0.303563     0.007504
PD962   PD        0.426429    0.113596    0.302224     0.005394
PD963   PD        0.427858    0.148776    0.342798     0.005394
PD964   PD        0.467859    0.112543    0.343755     0.005394
PD965   PD        0.462946    0.148515    0.302014     0.005394
PD966   PD        0.498708    0.112955    0.301574     0.005394
PD967   PD        0.502765    0.146290    0.339418     0.005394
PD968   PD        0.535415    0.109307    0.338244     0.005394
PD969   PD        0.537524    0.150037    0.300733     0.005394
PD970   PD        0.570967    0.109347    0.301042     0.005394
PD971   PD        0.571127    0.142987    0.336467     0.005394
PD972   PD        0.609402    0.109695    0.348669     0.005394
PD973   PD        0.607323    0.144434    0.305282     0.005394
PD974   PD        0.642418    0.146677    0.345553     0.005394
PD975   PD        0.673830    0.149378    0.303762     0.005394
PD976   PD        0.106578    0.220790    0.301537     0.005394
PD977   PD        0.139860    0.185142    0.308526     0.005394
PD978   PD        0.138357    0.221389    0.343467     0.005394
PD979   PD        0.175129    0.184250    0.344555     0.005394
PD980   PD        0.173954    0.217665    0.307737     0.005394
PD981   PD        0.211431    0.182712    0.305648     0.005394
PD982   PD        0.212634    0.221258    0.348058     0.005394
PD983   PD        0.250673    0.184528    0.346390     0.005394
PD984   PD        0.250230    0.220119    0.308938     0.005394
PD985   PD        0.283678    0.184007    0.301371     0.005394
AU986   AU        0.285349    0.217961    0.345840     0.007504
AU987   AU        0.320803    0.185369    0.344097     0.007504
AU988   AU        0.319484    0.218481    0.304292     0.007504
AU989   AU        0.355911    0.184415    0.304065     0.007504
AU990   AU        0.356303    0.216746    0.342399     0.007504
AU991   AU        0.392693    0.184151    0.342423     0.007504
AU992   AU        0.391272    0.217593    0.302929     0.007504
AU993   AU        0.429430    0.182245    0.302070     0.007504
AU994   AU        0.427561    0.216969    0.341991     0.007504
AU995   AU        0.461505    0.182843    0.343545     0.007504
AU996   AU        0.463744    0.217968    0.303745     0.007504
AU997   AU        0.501052    0.185106    0.302366     0.007504
AU998   AU        0.499732    0.219646    0.341683     0.007504
PD999   PD        0.535266    0.188667    0.343012     0.005394
AU1000   AU        0.536062    0.220126    0.303609     0.007504
PD1001   PD        0.572962    0.183344    0.303343     0.005394
AU1002   AU        0.572736    0.221713    0.343419     0.007504
PD1003   PD        0.608218    0.185729    0.342762     0.005394
AU1004   AU        0.608894    0.218977    0.303490     0.007504
PD1005   PD        0.640891    0.185052    0.302738     0.005394
PD1006   PD        0.645885    0.218607    0.344405     0.005394
PD1007   PD        0.678795    0.181193    0.340818     0.005394
PD1008   PD        0.678703    0.216284    0.306416     0.005394
PD1009   PD        0.711131    0.181758    0.299754     0.005394
PD1010   PD        0.709997    0.216954    0.337061     0.005394
PD1011   PD        0.749740    0.216252    0.302412     0.005394
PD1012   PD        0.067545    0.290073    0.346294     0.005394
PD1013   PD        0.106885    0.258272    0.343940     0.005394
PD1014   PD        0.107388    0.291312    0.310056     0.005394
PD1015   PD        0.142343    0.254795    0.305842     0.005394
PD1016   PD        0.141643    0.289937    0.345915     0.005394
PD1017   PD        0.174901    0.251572    0.347214     0.005394
PD1018   PD        0.176525    0.289033    0.307146     0.005394
PD1019   PD        0.211835    0.250799    0.309043     0.005394
AU1020   AU        0.210638    0.290493    0.342870     0.007504
AU1021   AU        0.249254    0.256057    0.346063     0.007504
AU1022   AU        0.248780    0.288589    0.304303     0.007504
AU1023   AU        0.285905    0.253119    0.306858     0.007504
AU1024   AU        0.284311    0.290326    0.344336     0.007504
AU1025   AU        0.319522    0.252884    0.344583     0.007504
AU1026   AU        0.318306    0.289415    0.305489     0.007504
AU1027   AU        0.353320    0.254066    0.302201     0.007504
AU1028   AU        0.355015    0.288553    0.342000     0.007504
AU1029   AU        0.391847    0.253763    0.342984     0.007504
AU1030   AU        0.390099    0.290222    0.303496     0.007504
AU1031   AU        0.428006    0.252997    0.305332     0.007504
AU1032   AU        0.425887    0.289326    0.344079     0.007504
AU1033   AU        0.462712    0.252318    0.343941     0.007504
AU1034   AU        0.464331    0.286280    0.303853     0.007504
AU1035   AU        0.499740    0.251578    0.302936     0.007504
AU1036   AU        0.500894    0.289823    0.345081     0.007504
AU1037   AU        0.536709    0.254747    0.341630     0.007504
AU1038   AU        0.535807    0.288081    0.303725     0.007504
AU1039   AU        0.571658    0.253236    0.305610     0.007504
AU1040   AU        0.574569    0.288478    0.342862     0.007504
AU1041   AU        0.611123    0.255987    0.341943     0.007504
AU1042   AU        0.607986    0.291824    0.304574     0.007504
AU1043   AU        0.643838    0.252949    0.302724     0.007504
AU1044   AU        0.645398    0.290691    0.344050     0.007504
PD1045   PD        0.679734    0.255163    0.343604     0.005394
AU1046   AU        0.677880    0.290294    0.305486     0.007504
PD1047   PD        0.715402    0.257273    0.303981     0.005394
PD1048   PD        0.714657    0.290692    0.344030     0.005394
PD1049   PD        0.751737    0.255417    0.342645     0.005394
PD1050   PD        0.751319    0.289834    0.307685     0.005394
PD1051   PD        0.785218    0.291263    0.344337     0.005394
PD1052   PD        0.035425    0.326743    0.347247     0.005394
PD1053   PD        0.034616    0.361213    0.306978     0.005394
PD1054   PD        0.066084    0.325231    0.308812     0.005394
PD1055   PD        0.069715    0.361913    0.343018     0.005394
PD1056   PD        0.102686    0.324382    0.345679     0.005394
PD1057   PD        0.102117    0.363522    0.305580     0.005394
PD1058   PD        0.140437    0.326902    0.307097     0.005394
AU1059   AU        0.141768    0.360271    0.344357     0.007504
AU1060   AU        0.175459    0.326257    0.345272     0.007504
AU1061   AU        0.176727    0.362344    0.305788     0.007504
AU1062   AU        0.211800    0.326583    0.304739     0.007504
AU1063   AU        0.209642    0.363078    0.342428     0.007504
AU1064   AU        0.246155    0.327479    0.344265     0.007504
AU1065   AU        0.245424    0.360780    0.305550     0.007504
AU1066   AU        0.283649    0.324968    0.305018     0.007504
AU1067   AU        0.281819    0.363292    0.343624     0.007504
AU1068   AU        0.320351    0.325824    0.343427     0.007504
AU1069   AU        0.320778    0.360010    0.304910     0.007504
AU1070   AU        0.353732    0.323975    0.305525     0.007504
AU1071   AU        0.355037    0.359136    0.346843     0.007504
AU1072   AU        0.391004    0.326251    0.342352     0.007504
AU1073   AU        0.389283    0.361117    0.303613     0.007504
AU1074   AU        0.425403    0.324196    0.305180     0.007504
AU1075   AU        0.428087    0.361315    0.346437     0.007504
AU1076   AU        0.464294    0.325804    0.344120     0.007504
AU1077   AU        0.464554    0.361171    0.306742     0.007504
AU1078   AU        0.501917    0.325492    0.305588     0.007504
AU1079   AU        0.498987    0.362424    0.343639     0.007504
AU1080   AU        0.538856    0.324953    0.344014     0.007504
AU1081   AU        0.534679    0.361473    0.304670     0.007504
AU1082   AU        0.571255    0.326649    0.301719     0.007504
AU1083   AU        0.573691    0.363013    0.341867     0.007504
AU1084   AU        0.609281    0.326022    0.343084     0.007504
AU1085   AU        0.609650    0.361959    0.301808     0.007504
AU1086   AU        0.643363    0.324944    0.303575     0.007504
AU1087   AU        0.644641    0.361658    0.344479     0.007504
AU1088   AU        0.680198    0.325611    0.341887     0.007504
AU1089   AU        0.677244    0.363063    0.305706     0.007504
PD1090   PD        0.713976    0.324621    0.303842     0.005394
AU1091   AU        0.715650    0.360824    0.342758     0.007504
PD1092   PD        0.751125    0.326070    0.345549     0.005394
PD1093   PD        0.750332    0.363563    0.303562     0.005394
PD1094   PD        0.786570    0.328243    0.304103     0.005394
PD1095   PD        0.784193    0.361141    0.341700     0.005394
PD1096   PD        0.818705    0.326379    0.344825     0.005394
PD1097   PD        0.819091    0.359876    0.304633     0.005394
PD1098   PD        0.036170    0.400394    0.343774     0.005394
PD1099   PD        0.035128    0.434564    0.301971     0.005394
PD1100   PD        0.066695    0.398329    0.304982     0.005394
PD1101   PD        0.071877    0.434951    0.344660     0.005394
AU1102   AU        0.106403    0.395097    0.342606     0.007504
PD1103   PD        0.104122    0.436995    0.303346     0.005394
AU1104   AU        0.139035    0.398847    0.302180     0.007504
AU1105   AU        0.137351    0.432947    0.343860     0.007504
AU1106   AU        0.173851    0.397185    0.343438     0.007504
AU1107   AU        0.176371    0.431422    0.303633     0.007504
AU1108   AU        0.212464    0.398046    0.301431     0.007504
AU1109   AU        0.212890    0.431825    0.341780     0.007504
AU1110   AU        0.246513    0.396647    0.344448     0.007504
AU1111   AU        0.247470    0.433290    0.303814     0.007504
AU1112   AU        0.281104    0.398350    0.306052     0.007504
AU1113   AU        0.281743    0.432172    0.342314     0.007504
AU1114   AU        0.320923    0.395251    0.343322     0.007504
AU1115   AU        0.318845    0.433477    0.305433     0.007504
AU1116   AU        0.353820    0.397624    0.304996     0.007504
AU1117   AU        0.355854    0.431005    0.344244     0.007504
AU1118   AU        0.390893    0.394598    0.344351     0.007504
AU1119   AU        0.390382    0.431476    0.305650     0.007504
AU1120   AU        0.427859    0.399747    0.306867     0.007504
AU1121   AU        0.426499    0.433119    0.345035     0.007504
AU1122   AU        0.463685    0.398420    0.345166     0.007504
AU1123   AU        0.463621    0.435532    0.304194     0.007504
AU1124   AU        0.499418    0.396536    0.306725     0.007504
AU1125   AU        0.499640    0.434081    0.341592     0.007504
AU1126   AU        0.536326    0.398833    0.344511     0.007504
AU1127   AU        0.535749    0.431640    0.306351     0.007504
AU1128   AU        0.571688    0.398651    0.304964     0.007504
AU1129   AU        0.572581    0.432073    0.341817     0.007504
AU1130   AU        0.609042    0.396758    0.342091     0.007504
AU1131   AU        0.608789    0.433228    0.304068     0.007504
AU1132   AU        0.642843    0.396448    0.305261     0.007504
AU1133   AU        0.644746    0.431241    0.343123     0.007504
AU1134   AU        0.680125    0.397944    0.343718     0.007504
AU1135   AU        0.678864    0.431754    0.306363     0.007504
AU1136   AU        0.713262    0.397550    0.304653     0.007504
AU1137   AU        0.715743    0.434346    0.346104     0.007504
AU1138   AU        0.749708    0.399393    0.343090     0.007504
AU1139   AU        0.749377    0.432693    0.304760     0.007504
PD1140   PD        0.784513    0.396908    0.305990     0.005394
PD1141   PD        0.785651    0.432402    0.344696     0.005394
PD1142   PD        0.820184    0.398741    0.347953     0.005394
PD1143   PD        0.815683    0.432964    0.304896     0.005394
PD1144   PD        0.035953    0.468824    0.344882     0.005394
PD1145   PD        0.034276    0.505721    0.301586     0.005394
PD1146   PD        0.066712    0.468869    0.305108     0.005394
PD1147   PD        0.071777    0.507651    0.343296     0.005394
PD1148   PD        0.105679    0.471386    0.341569     0.005394
PD1149   PD        0.106627    0.507817    0.303543     0.005394
PD1150   PD        0.145010    0.468095    0.303396     0.005394
AU1151   AU        0.139704    0.505510    0.343947     0.007504
AU1152   AU        0.176124    0.469269    0.342516     0.007504
AU1153   AU        0.177668    0.506500    0.304519     0.007504
AU1154   AU        0.211544    0.467814    0.303313     0.007504
AU1155   AU        0.212201    0.505412    0.343906     0.007504
AU1156   AU        0.247865    0.468882    0.344756     0.007504
AU1157   AU        0.245292    0.503954    0.303477     0.007504
AU1158   AU        0.282943    0.467920    0.302772     0.007504
AU1159   AU        0.281245    0.504216    0.345767     0.007504
AU1160   AU        0.318090    0.469430    0.343355     0.007504
AU1161   AU        0.318171    0.503837    0.304701     0.007504
AU1162   AU        0.355341    0.469190    0.305736     0.007504
AU1163   AU        0.356024    0.505397    0.345309     0.007504
AU1164   AU        0.392434    0.469904    0.344118     0.007504
AU1165   AU        0.390567    0.505058    0.303840     0.007504
AU1166   AU        0.426993    0.468603    0.303207     0.007504
AU1167   AU        0.428188    0.506678    0.342775     0.007504
AU1168   AU        0.463599    0.470429    0.341046     0.007504
AU1169   AU        0.463504    0.505943    0.302709     0.007504
AU1170   AU        0.501668    0.470346    0.304366     0.007504
AU1171   AU        0.501209    0.505586    0.341904     0.007504
AU1172   AU        0.537336    0.468450    0.343051     0.007504
AU1173   AU        0.537858    0.503667    0.304040     0.007504
AU1174   AU        0.572787    0.469401    0.305160     0.007504
AU1175   AU        0.573222    0.503689    0.342996     0.007504
AU1176   AU        0.609019    0.467784    0.341156     0.007504
AU1177   AU        0.607938    0.504517    0.303593     0.007504
AU1178   AU        0.645666    0.466688    0.304354     0.007504
AU1179   AU        0.644902    0.503360    0.342502     0.007504
AU1180   AU        0.679352    0.467938    0.343756     0.007504
AU1181   AU        0.679284    0.503146    0.306325     0.007504
AU1182   AU        0.713716    0.467603    0.305839     0.007504
AU1183   AU        0.714767    0.502838    0.346252     0.007504
AU1184   AU        0.749067    0.468883    0.344321     0.007504
PD1185   PD        0.747452    0.503847    0.305869     0.005394
PD1186   PD        0.780608    0.468205    0.303304     0.005394
PD1187   PD        0.781942    0.502024    0.339879     0.005394
PD1188   PD        0.819926    0.466554    0.342882     0.005394
PD1189   PD        0.817054    0.497912    0.303744     0.005394
PD1190   PD        0.037146    0.543067    0.341068     0.005394
PD1191   PD        0.033459    0.578271    0.310198     0.005394
PD1192   PD        0.072911    0.543605    0.307325     0.005394
PD1193   PD        0.071294    0.577914    0.343966     0.005394
AU1194   AU        0.107646    0.541861    0.344311     0.007504
PD1195   PD        0.105764    0.577558    0.306956     0.005394
AU1196   AU        0.140653    0.541864    0.304985     0.007504
AU1197   AU        0.141120    0.577246    0.345737     0.007504
AU1198   AU        0.174841    0.540622    0.342220     0.007504
AU1199   AU        0.176520    0.576131    0.305704     0.007504
AU1200   AU        0.213207    0.542626    0.304205     0.007504
AU1201   AU        0.210887    0.577512    0.342091     0.007504
AU1202   AU        0.246810    0.543348    0.344305     0.007504
AU1203   AU        0.245385    0.579006    0.304582     0.007504
AU1204   AU        0.281428    0.543097    0.306692     0.007504
AU1205   AU        0.283761    0.579176    0.346298     0.007504
AU1206   AU        0.321324    0.541397    0.342959     0.007504
AU1207   AU        0.317827    0.578007    0.305240     0.007504
AU1208   AU        0.353919    0.540384    0.304475     0.007504
AU1209   AU        0.354914    0.578944    0.343807     0.007504
AU1210   AU        0.392212    0.540920    0.344266     0.007504
AU1211   AU        0.392559    0.576859    0.302945     0.007504
AU1212   AU        0.427584    0.541235    0.303289     0.007504
AU1213   AU        0.425987    0.576471    0.343548     0.007504
AU1214   AU        0.461875    0.542113    0.346426     0.007504
AU1215   AU        0.462614    0.576758    0.305330     0.007504
AU1216   AU        0.499186    0.541588    0.305074     0.007504
AU1217   AU        0.497207    0.576866    0.342238     0.007504
AU1218   AU        0.536197    0.543748    0.342733     0.007504
AU1219   AU        0.535917    0.577363    0.303568     0.007504
AU1220   AU        0.575445    0.542726    0.304879     0.007504
AU1221   AU        0.572515    0.578637    0.342257     0.007504
AU1222   AU        0.608755    0.543800    0.341694     0.007504
AU1223   AU        0.609077    0.577960    0.301723     0.007504
AU1224   AU        0.645717    0.540753    0.302441     0.007504
AU1225   AU        0.644547    0.576276    0.344220     0.007504
AU1226   AU        0.681076    0.538862    0.344371     0.007504
AU1227   AU        0.678218    0.579057    0.305147     0.007504
PD1228   PD        0.715212    0.544999    0.306002     0.005394
AU1229   AU        0.712733    0.577841    0.344652     0.007504
PD1230   PD        0.750864    0.539815    0.345643     0.005394
PD1231   PD        0.749479    0.577698    0.309724     0.005394
PD1232   PD        0.788044    0.541766    0.304388     0.005394
PD1233   PD        0.782507    0.579943    0.345675     0.005394
PD1234   PD        0.818840    0.544944    0.343299     0.005394
PD1235   PD        0.820984    0.617269    0.267708     0.005394
PD1236   PD        0.036427    0.611857    0.344665     0.005394
PD1237   PD        0.069254    0.614288    0.305071     0.005394
PD1238   PD        0.072698    0.646575    0.342661     0.005394
PD1239   PD        0.108862    0.613568    0.343632     0.005394
PD1240   PD        0.105236    0.652908    0.301372     0.005394
PD1241   PD        0.142334    0.612841    0.306527     0.005394
PD1242   PD        0.142762    0.648059    0.345003     0.005394
AU1243   AU        0.177575    0.613314    0.342553     0.007504
AU1244   AU        0.175976    0.649510    0.305086     0.007504
AU1245   AU        0.211143    0.615102    0.303277     0.007504
AU1246   AU        0.209752    0.650464    0.345608     0.007504
AU1247   AU        0.245340    0.613098    0.343028     0.007504
AU1248   AU        0.246399    0.650142    0.306189     0.007504
AU1249   AU        0.281239    0.614735    0.306694     0.007504
AU1250   AU        0.281968    0.650258    0.343477     0.007504
AU1251   AU        0.317805    0.614161    0.341644     0.007504
AU1252   AU        0.319296    0.649899    0.306625     0.007504
AU1253   AU        0.355046    0.615296    0.306162     0.007504
AU1254   AU        0.355107    0.648640    0.344341     0.007504
AU1255   AU        0.390203    0.615115    0.343338     0.007504
AU1256   AU        0.390266    0.650179    0.306490     0.007504
AU1257   AU        0.428231    0.611691    0.304725     0.007504
AU1258   AU        0.428917    0.651866    0.341716     0.007504
AU1259   AU        0.466396    0.614333    0.343897     0.007504
AU1260   AU        0.464365    0.651143    0.304290     0.007504
AU1261   AU        0.497805    0.613294    0.304093     0.007504
AU1262   AU        0.501341    0.650845    0.342542     0.007504
AU1263   AU        0.534811    0.613870    0.343927     0.007504
AU1264   AU        0.533803    0.649898    0.303619     0.007504
AU1265   AU        0.571404    0.612907    0.302692     0.007504
AU1266   AU        0.574092    0.648741    0.342874     0.007504
AU1267   AU        0.608079    0.614089    0.345885     0.007504
AU1268   AU        0.605648    0.648391    0.302807     0.007504
AU1269   AU        0.640919    0.613529    0.302541     0.007504
AU1270   AU        0.642087    0.649942    0.343560     0.007504
AU1271   AU        0.676811    0.613788    0.343290     0.007504
AU1272   AU        0.678532    0.645056    0.303178     0.007504
PD1273   PD        0.713375    0.611278    0.305652     0.005394
PD1274   PD        0.712047    0.647398    0.343418     0.005394
PD1275   PD        0.746778    0.613638    0.344542     0.005394
PD1276   PD        0.747549    0.649632    0.307685     0.005394
PD1277   PD        0.780186    0.614650    0.308053     0.005394
PD1278   PD        0.785305    0.651273    0.340022     0.005394
PD1279   PD        0.817144    0.614033    0.341422     0.005394
PD1280   PD        0.104089    0.686025    0.345769     0.005394
PD1281   PD        0.106996    0.718397    0.307280     0.005394
PD1282   PD        0.144978    0.685869    0.307478     0.005394
PD1283   PD        0.139361    0.717137    0.347090     0.005394
AU1284   AU        0.176372    0.684402    0.346873     0.007504
PD1285   PD        0.178055    0.720135    0.303971     0.005394
AU1286   AU        0.210525    0.685200    0.304264     0.007504
PD1287   PD        0.212410    0.717825    0.342783     0.005394
AU1288   AU        0.248297    0.684455    0.344804     0.007504
AU1289   AU        0.249421    0.719127    0.304604     0.007504
AU1290   AU        0.284129    0.684656    0.304485     0.007504
AU1291   AU        0.284306    0.718427    0.342201     0.007504
AU1292   AU        0.318766    0.684466    0.341418     0.007504
AU1293   AU        0.317761    0.719239    0.304231     0.007504
AU1294   AU        0.354521    0.685666    0.303395     0.007504
AU1295   AU        0.354536    0.722628    0.342837     0.007504
AU1296   AU        0.392393    0.687768    0.341101     0.007504
AU1297   AU        0.390106    0.721687    0.303503     0.007504
AU1298   AU        0.428407    0.687682    0.301497     0.007504
AU1299   AU        0.427515    0.719608    0.343203     0.007504
AU1300   AU        0.464160    0.685193    0.343565     0.007504
AU1301   AU        0.464097    0.720060    0.303462     0.007504
AU1302   AU        0.501046    0.687889    0.304929     0.007504
AU1303   AU        0.499579    0.721672    0.342857     0.007504
AU1304   AU        0.537012    0.686115    0.344538     0.007504
AU1305   AU        0.537052    0.721400    0.306129     0.007504
AU1306   AU        0.571801    0.683159    0.304768     0.007504
AU1307   AU        0.570865    0.720937    0.344679     0.007504
AU1308   AU        0.607178    0.684182    0.343121     0.007504
PD1309   PD        0.603238    0.720665    0.308234     0.005394
PD1310   PD        0.641485    0.683810    0.305374     0.005394
PD1311   PD        0.641262    0.719601    0.345839     0.005394
PD1312   PD        0.679423    0.684004    0.344361     0.005394
PD1313   PD        0.678242    0.711496    0.300754     0.005394
PD1314   PD        0.712625    0.681870    0.301570     0.005394
PD1315   PD        0.715019    0.723339    0.353125     0.005394
PD1316   PD        0.747213    0.682561    0.340919     0.005394
PD1317   PD        0.751283    0.710969    0.300646     0.005394
PD1318   PD        0.143264    0.752005    0.306454     0.005394
PD1319   PD        0.175579    0.754086    0.345360     0.005394
PD1320   PD        0.173868    0.785389    0.307680     0.005394
PD1321   PD        0.211961    0.756549    0.304859     0.005394
PD1322   PD        0.211117    0.793571    0.345646     0.005394
PD1323   PD        0.249250    0.752676    0.343951     0.005394
PD1324   PD        0.249824    0.792143    0.304912     0.005394
AU1325   AU        0.284357    0.755584    0.305192     0.007504
PD1326   PD        0.286145    0.790171    0.342479     0.005394
AU1327   AU        0.319980    0.756379    0.340305     0.007504
PD1328   PD        0.320224    0.791264    0.301672     0.005394
AU1329   AU        0.353639    0.754505    0.305299     0.007504
PD1330   PD        0.354967    0.788743    0.341626     0.005394
AU1331   AU        0.391461    0.755435    0.341791     0.007504
PD1332   PD        0.391602    0.789237    0.306117     0.005394
AU1333   AU        0.427648    0.754276    0.306918     0.007504
PD1334   PD        0.425138    0.791647    0.342008     0.005394
AU1335   AU        0.464654    0.755250    0.343876     0.007504
PD1336   PD        0.462303    0.791240    0.306187     0.005394
AU1337   AU        0.500376    0.754582    0.304277     0.007504
PD1338   PD        0.499799    0.789785    0.339637     0.005394
AU1339   AU        0.536428    0.755415    0.343227     0.007504
PD1340   PD        0.534401    0.791275    0.307580     0.005394
PD1341   PD        0.570296    0.756431    0.304873     0.005394
PD1342   PD        0.569212    0.792090    0.343234     0.005394
PD1343   PD        0.604789    0.755510    0.347293     0.005394
PD1344   PD        0.605979    0.790259    0.308162     0.005394
PD1345   PD        0.641080    0.758653    0.309572     0.005394
PD1346   PD        0.641623    0.789053    0.351364     0.005394
PD1347   PD        0.678493    0.756268    0.350571     0.005394
PD1348   PD        0.681231    0.792677    0.311494     0.005394
PD1349   PD        0.716459    0.761425    0.322577     0.005394
PD1350   PD        0.250291    0.824365    0.344992     0.005394
PD1351   PD        0.280232    0.826368    0.305257     0.005394
PD1352   PD        0.281453    0.862207    0.347778     0.005394
PD1353   PD        0.318278    0.828970    0.345857     0.005394
PD1354   PD        0.318072    0.863940    0.306674     0.005394
PD1355   PD        0.354061    0.825669    0.306546     0.005394
PD1356   PD        0.356409    0.863373    0.344413     0.005394
PD1357   PD        0.386905    0.826917    0.343744     0.005394
PD1358   PD        0.392739    0.861632    0.303866     0.005394
PD1359   PD        0.423464    0.825120    0.303673     0.005394
PD1360   PD        0.427757    0.859647    0.340161     0.005394
PD1361   PD        0.465092    0.828766    0.341874     0.005394
PD1362   PD        0.466254    0.861843    0.303841     0.005394
PD1363   PD        0.501082    0.827974    0.303574     0.005394
PD1364   PD        0.502537    0.862672    0.344724     0.005394
PD1365   PD        0.533061    0.827419    0.342722     0.005394
PD1366   PD        0.534614    0.861874    0.302550     0.005394
PD1367   PD        0.569613    0.825494    0.307393     0.005394
PD1368   PD        0.570962    0.858433    0.343991     0.005394
PD1369   PD        0.609149    0.826813    0.345281     0.005394
PD1370   PD        0.246956    0.078415    0.378678     0.005394
PD1371   PD        0.279216    0.077212    0.415177     0.005394
PD1372   PD        0.312571    0.078323    0.378928     0.005394
PD1373   PD        0.359135    0.077381    0.425357     0.005394
PD1374   PD        0.391953    0.040704    0.426000     0.005394
PD1375   PD        0.393933    0.073693    0.387081     0.005394
PD1376   PD        0.432522    0.042365    0.388349     0.005394
PD1377   PD        0.430469    0.076503    0.421615     0.005394
PD1378   PD        0.471185    0.045578    0.418387     0.005394
PD1379   PD        0.463644    0.080320    0.386888     0.005394
PD1380   PD        0.498486    0.079707    0.425828     0.005394
PD1381   PD        0.547712    0.075070    0.387417     0.005394
PD1382   PD        0.574240    0.080395    0.426189     0.005394
PD1383   PD        0.618385    0.057861    0.333601     0.005394
PD1384   PD        0.140006    0.150419    0.423067     0.005394
PD1385   PD        0.179720    0.115355    0.423493     0.005394
PD1386   PD        0.179086    0.149781    0.383415     0.005394
PD1387   PD        0.214009    0.115859    0.382416     0.005394
PD1388   PD        0.213291    0.146839    0.423383     0.005394
PD1389   PD        0.246569    0.110447    0.416731     0.005394
PD1390   PD        0.245664    0.149604    0.382289     0.005394
PD1391   PD        0.280027    0.112151    0.380440     0.005394
PD1392   PD        0.283106    0.150807    0.420454     0.005394
PD1393   PD        0.317455    0.111242    0.420543     0.005394
PD1394   PD        0.319840    0.150449    0.380534     0.005394
PD1395   PD        0.361475    0.117329    0.378458     0.005394
PD1396   PD        0.356026    0.148232    0.424249     0.005394
PD1397   PD        0.393386    0.111448    0.424674     0.005394
PD1398   PD        0.391760    0.151356    0.380616     0.005394
PD1399   PD        0.429989    0.113498    0.384873     0.005394
AU1400   AU        0.428741    0.150284    0.424153     0.007504
PD1401   PD        0.465837    0.115192    0.423522     0.005394
PD1402   PD        0.463478    0.149857    0.383865     0.005394
PD1403   PD        0.496600    0.112295    0.382915     0.005394
AU1404   AU        0.500523    0.147910    0.426561     0.007504
PD1405   PD        0.534298    0.112172    0.428112     0.005394
PD1406   PD        0.537659    0.144190    0.391563     0.005394
PD1407   PD        0.574298    0.114280    0.387676     0.005394
AU1408   AU        0.573234    0.149002    0.425126     0.007504
PD1409   PD        0.608475    0.113352    0.426796     0.005394
PD1410   PD        0.608676    0.146979    0.386971     0.005394
PD1411   PD        0.643959    0.114237    0.386488     0.005394
PD1412   PD        0.643748    0.148642    0.423860     0.005394
PD1413   PD        0.679935    0.109475    0.418139     0.005394
PD1414   PD        0.677242    0.146726    0.380901     0.005394
PD1415   PD        0.708840    0.150254    0.417988     0.005394
PD1416   PD        0.071471    0.218330    0.422615     0.005394
PD1417   PD        0.107325    0.185262    0.420073     0.005394
PD1418   PD        0.104929    0.220815    0.382296     0.005394
PD1419   PD        0.142630    0.183610    0.382806     0.005394
PD1420   PD        0.143400    0.218629    0.419489     0.005394
PD1421   PD        0.177757    0.181380    0.424122     0.005394
PD1422   PD        0.173633    0.218289    0.384322     0.005394
PD1423   PD        0.209413    0.183919    0.386827     0.005394
AU1424   AU        0.211919    0.218152    0.422749     0.007504
AU1425   AU        0.247118    0.183627    0.421669     0.007504
AU1426   AU        0.247496    0.215704    0.383939     0.007504
AU1427   AU        0.284443    0.184340    0.382875     0.007504
AU1428   AU        0.283392    0.216380    0.420574     0.007504
AU1429   AU        0.320386    0.182229    0.423290     0.007504
AU1430   AU        0.320436    0.217862    0.383166     0.007504
AU1431   AU        0.355782    0.183597    0.380115     0.007504
AU1432   AU        0.356866    0.215894    0.421635     0.007504
AU1433   AU        0.393098    0.181465    0.421731     0.007504
AU1434   AU        0.390877    0.219196    0.381717     0.007504
AU1435   AU        0.427540    0.183368    0.381759     0.007504
AU1436   AU        0.425179    0.219340    0.422214     0.007504
AU1437   AU        0.464771    0.182881    0.421470     0.007504
AU1438   AU        0.461507    0.218828    0.386031     0.007504
AU1439   AU        0.499303    0.187814    0.382919     0.007504
AU1440   AU        0.500790    0.218708    0.423752     0.007504
AU1441   AU        0.535317    0.183194    0.422240     0.007504
AU1442   AU        0.536553    0.219418    0.382620     0.007504
PD1443   PD        0.571659    0.182746    0.384087     0.005394
AU1444   AU        0.571795    0.217806    0.420452     0.007504
AU1445   AU        0.608771    0.182843    0.422796     0.007504
AU1446   AU        0.609764    0.219010    0.383566     0.007504
PD1447   PD        0.642503    0.183657    0.385763     0.005394
AU1448   AU        0.644383    0.219176    0.424183     0.007504
PD1449   PD        0.676886    0.183402    0.422408     0.005394
PD1450   PD        0.677245    0.222077    0.383617     0.005394
PD1451   PD        0.712258    0.185279    0.383367     0.005394
PD1452   PD        0.714174    0.222883    0.423342     0.005394
PD1453   PD        0.747782    0.185056    0.422707     0.005394
PD1454   PD        0.748578    0.220401    0.385642     0.005394
PD1455   PD        0.781074    0.218360    0.423455     0.005394
PD1456   PD        0.034278    0.292507    0.383991     0.005394
PD1457   PD        0.071221    0.255496    0.381980     0.005394
PD1458   PD        0.070406    0.289450    0.420532     0.005394
PD1459   PD        0.103839    0.255091    0.421221     0.005394
PD1460   PD        0.106982    0.289718    0.381676     0.005394
PD1461   PD        0.140445    0.253974    0.385656     0.005394
AU1462   AU        0.140145    0.289667    0.421109     0.007504
AU1463   AU        0.176056    0.254369    0.421481     0.007504
AU1464   AU        0.176861    0.290878    0.385003     0.007504
AU1465   AU        0.211733    0.254765    0.385204     0.007504
AU1466   AU        0.212931    0.290956    0.421748     0.007504
AU1467   AU        0.249885    0.253521    0.419699     0.007504
AU1468   AU        0.247322    0.290996    0.383815     0.007504
AU1469   AU        0.284347    0.251550    0.381550     0.007504
AU1470   AU        0.283216    0.288123    0.422073     0.007504
AU1471   AU        0.319192    0.250799    0.422342     0.007504
AU1472   AU        0.319893    0.290265    0.384402     0.007504
AU1473   AU        0.356859    0.253043    0.381662     0.007504
AU1474   AU        0.353541    0.289343    0.421576     0.007504
AU1475   AU        0.392185    0.254177    0.423091     0.007504
AU1476   AU        0.390202    0.289051    0.382333     0.007504
AU1477   AU        0.427232    0.253954    0.382719     0.007504
AU1478   AU        0.425984    0.290372    0.421650     0.007504
AU1479   AU        0.463420    0.252029    0.423538     0.007504
AU1480   AU        0.465065    0.289227    0.385234     0.007504
AU1481   AU        0.501392    0.255483    0.382930     0.007504
AU1482   AU        0.501419    0.289650    0.420360     0.007504
AU1483   AU        0.537625    0.253226    0.421564     0.007504
AU1484   AU        0.539579    0.289921    0.381720     0.007504
AU1485   AU        0.574536    0.253285    0.383309     0.007504
AU1486   AU        0.574529    0.288511    0.421181     0.007504
AU1487   AU        0.608912    0.253207    0.420669     0.007504
AU1488   AU        0.608485    0.289338    0.381625     0.007504
AU1489   AU        0.643977    0.256148    0.383107     0.007504
AU1490   AU        0.645603    0.289900    0.421190     0.007504
AU1491   AU        0.679914    0.256840    0.422095     0.007504
AU1492   AU        0.678767    0.290926    0.383336     0.007504
PD1493   PD        0.715922    0.255839    0.382457     0.005394
AU1494   AU        0.715637    0.292438    0.419912     0.007504
PD1495   PD        0.748731    0.255103    0.426782     0.005394
PD1496   PD        0.751715    0.293743    0.383782     0.005394
PD1497   PD        0.781422    0.256276    0.384146     0.005394
PD1498   PD        0.784105    0.290392    0.423089     0.005394
PD1499   PD        0.820043    0.289959    0.379509     0.005394
PD1500   PD        0.036923    0.325703    0.423176     0.005394
PD1501   PD        0.039009    0.362605    0.380948     0.005394
PD1502   PD        0.070791    0.324800    0.384647     0.005394
PD1503   PD        0.072220    0.360800    0.421083     0.005394
PD1504   PD        0.106754    0.323396    0.421152     0.005394
AU1505   AU        0.105336    0.361088    0.381981     0.007504
AU1506   AU        0.139405    0.326022    0.383157     0.007504
AU1507   AU        0.139933    0.362662    0.421721     0.007504
AU1508   AU        0.174263    0.326333    0.422506     0.007504
AU1509   AU        0.174099    0.363634    0.382506     0.007504
AU1510   AU        0.211274    0.327098    0.382210     0.007504
AU1511   AU        0.207706    0.362078    0.420421     0.007504
AU1512   AU        0.245988    0.326190    0.422477     0.007504
AU1513   AU        0.245717    0.363062    0.383586     0.007504
AU1514   AU        0.280842    0.325726    0.383197     0.007504
AU1515   AU        0.283966    0.362362    0.422471     0.007504
AU1516   AU        0.319999    0.326654    0.421152     0.007504
AU1517   AU        0.318997    0.361503    0.381133     0.007504
AU1518   AU        0.356601    0.324035    0.382883     0.007504
AU1519   AU        0.353326    0.362497    0.421314     0.007504
AU1520   AU        0.391081    0.327532    0.424036     0.007504
AU1521   AU        0.393049    0.361787    0.383639     0.007504
AU1522   AU        0.425007    0.325345    0.381954     0.007504
AU1523   AU        0.429045    0.358957    0.420972     0.007504
AU1524   AU        0.464505    0.324130    0.421235     0.007504
AU1525   AU        0.465054    0.362885    0.381762     0.007504
AU1526   AU        0.499280    0.324047    0.382047     0.007504
AU1527   AU        0.499395    0.360881    0.419066     0.007504
AU1528   AU        0.537385    0.323646    0.421838     0.007504
AU1529   AU        0.536480    0.361065    0.380116     0.007504
AU1530   AU        0.574564    0.324841    0.381896     0.007504
AU1531   AU        0.570697    0.359961    0.421211     0.007504
AU1532   AU        0.607413    0.325149    0.420856     0.007504
AU1533   AU        0.608777    0.362164    0.379081     0.007504
AU1534   AU        0.643196    0.325464    0.382027     0.007504
AU1535   AU        0.643527    0.359898    0.421898     0.007504
AU1536   AU        0.679897    0.325716    0.420961     0.007504
AU1537   AU        0.679797    0.358735    0.381046     0.007504
AU1538   AU        0.715191    0.326015    0.383493     0.007504
AU1539   AU        0.717390    0.361880    0.420291     0.007504
AU1540   AU        0.749692    0.325936    0.424249     0.007504
AU1541   AU        0.750185    0.361687    0.382446     0.007504
PD1542   PD        0.784841    0.327623    0.384107     0.005394
PD1543   PD        0.785271    0.364052    0.422369     0.005394
PD1544   PD        0.817980    0.326705    0.422680     0.005394
PD1545   PD        0.817682    0.361220    0.382544     0.005394
PD1546   PD        0.006865    0.432648    0.421585     0.005394
PD1547   PD        0.040646    0.396255    0.422836     0.005394
PD1548   PD        0.038554    0.432883    0.383872     0.005394
PD1549   PD        0.072675    0.398223    0.382789     0.005394
PD1550   PD        0.072980    0.433637    0.422342     0.005394
AU1551   AU        0.105554    0.399189    0.422218     0.007504
AU1552   AU        0.106282    0.434104    0.382101     0.007504
AU1553   AU        0.138533    0.397031    0.381344     0.007504
AU1554   AU        0.139053    0.432867    0.421759     0.007504
AU1555   AU        0.172773    0.395889    0.421273     0.007504
AU1556   AU        0.172200    0.432713    0.384699     0.007504
AU1557   AU        0.207581    0.397427    0.384276     0.007504
AU1558   AU        0.210092    0.432660    0.419275     0.007504
AU1559   AU        0.243370    0.397274    0.422127     0.007504
AU1560   AU        0.244130    0.431229    0.382289     0.007504
AU1561   AU        0.283654    0.396609    0.380717     0.007504
AU1562   AU        0.280128    0.435020    0.424166     0.007504
AU1563   AU        0.319593    0.395806    0.423405     0.007504
AU1564   AU        0.317449    0.430403    0.383494     0.007504
AU1565   AU        0.354538    0.396377    0.382184     0.007504
AU1566   AU        0.356024    0.435085    0.422073     0.007504
AU1567   AU        0.391447    0.397620    0.419933     0.007504
AU1568   AU        0.391779    0.432874    0.383881     0.007504
AU1569   AU        0.426960    0.396833    0.383666     0.007504
AU1570   AU        0.426508    0.431603    0.422484     0.007504
AU1571   AU        0.463098    0.395337    0.418925     0.007504
AU1572   AU        0.462447    0.433219    0.383866     0.007504
AU1573   AU        0.500668    0.399107    0.381546     0.007504
AU1574   AU        0.498357    0.434280    0.421833     0.007504
AU1575   AU        0.533652    0.396981    0.420459     0.007504
AU1576   AU        0.534210    0.433073    0.383596     0.007504
AU1577   AU        0.572930    0.397427    0.380052     0.007504
AU1578   AU        0.572576    0.432291    0.422235     0.007504
AU1579   AU        0.606445    0.397434    0.419308     0.007504
AU1580   AU        0.610023    0.432329    0.381903     0.007504
AU1581   AU        0.646167    0.397214    0.382314     0.007504
AU1582   AU        0.644395    0.432410    0.421025     0.007504
AU1583   AU        0.681703    0.398094    0.420967     0.007504
AU1584   AU        0.678405    0.432089    0.381476     0.007504
AU1585   AU        0.714941    0.397348    0.381993     0.007504
AU1586   AU        0.716025    0.434540    0.421267     0.007504
AU1587   AU        0.750688    0.399384    0.421190     0.007504
AU1588   AU        0.749143    0.433891    0.382443     0.007504
PD1589   PD        0.785518    0.397622    0.383927     0.005394
PD1590   PD        0.783832    0.431678    0.421062     0.005394
PD1591   PD        0.819077    0.398209    0.421486     0.005394
PD1592   PD        0.818109    0.432208    0.384474     0.005394
PD1593   PD        0.855259    0.430199    0.421600     0.005394
PD1594   PD        0.003609    0.469923    0.389208     0.005394
PD1595   PD        0.003663    0.505352    0.424813     0.005394
PD1596   PD        0.038356    0.467584    0.423707     0.005394
PD1597   PD        0.033989    0.504887    0.378922     0.005394
PD1598   PD        0.068841    0.472141    0.382316     0.005394
PD1599   PD        0.071718    0.503496    0.423153     0.005394
AU1600   AU        0.105074    0.468667    0.420473     0.007504
AU1601   AU        0.104845    0.507560    0.382405     0.007504
AU1602   AU        0.140245    0.469708    0.379812     0.007504
AU1603   AU        0.139816    0.506947    0.420629     0.007504
AU1604   AU        0.175158    0.468640    0.421856     0.007504
AU1605   AU        0.173467    0.506267    0.381550     0.007504
AU1606   AU        0.209747    0.470760    0.382269     0.007504
AU1607   AU        0.209377    0.505704    0.422497     0.007504
AU1608   AU        0.245556    0.470786    0.419693     0.007504
AU1609   AU        0.246738    0.506116    0.382260     0.007504
AU1610   AU        0.284024    0.468740    0.383216     0.007504
AU1611   AU        0.284412    0.506039    0.421689     0.007504
AU1612   AU        0.318907    0.470799    0.424308     0.007504
AU1613   AU        0.318873    0.504353    0.382855     0.007504
AU1614   AU        0.354489    0.469098    0.384220     0.007504
AU1615   AU        0.354188    0.504485    0.421308     0.007504
AU1616   AU        0.392800    0.469831    0.420965     0.007504
AU1617   AU        0.390442    0.502741    0.382313     0.007504
AU1618   AU        0.425995    0.470135    0.380904     0.007504
AU1619   AU        0.428588    0.503914    0.422088     0.007504
AU1620   AU        0.463848    0.469098    0.420133     0.007504
AU1621   AU        0.461638    0.505582    0.384113     0.007504
AU1622   AU        0.498229    0.468617    0.383203     0.007504
AU1623   AU        0.499192    0.503657    0.420581     0.007504
AU1624   AU        0.535876    0.470409    0.421936     0.007504
AU1625   AU        0.537129    0.507907    0.379846     0.007504
AU1626   AU        0.572147    0.468124    0.381993     0.007504
AU1627   AU        0.573909    0.507313    0.423823     0.007504
AU1628   AU        0.607985    0.468284    0.421700     0.007504
AU1629   AU        0.608911    0.509161    0.382259     0.007504
AU1630   AU        0.645876    0.467276    0.382741     0.007504
AU1631   AU        0.646209    0.504996    0.419814     0.007504
AU1632   AU        0.679057    0.468498    0.421891     0.007504
AU1633   AU        0.678857    0.505750    0.381954     0.007504
AU1634   AU        0.714777    0.469069    0.384010     0.007504
AU1635   AU        0.713903    0.501295    0.421007     0.007504
AU1636   AU        0.750833    0.467726    0.419162     0.007504
AU1637   AU        0.750009    0.504053    0.384377     0.007504
PD1638   PD        0.784363    0.466836    0.382479     0.005394
PD1639   PD        0.785788    0.501533    0.426025     0.005394
PD1640   PD        0.822011    0.463983    0.419361     0.005394
PD1641   PD        0.821868    0.498045    0.384871     0.005394
PD1642   PD        0.858606    0.465631    0.383383     0.005394
PD1643   PD        0.858063    0.499624    0.421886     0.005394
PD1644   PD        0.038199    0.541392    0.423300     0.005394
PD1645   PD        0.038100    0.578869    0.382384     0.005394
PD1646   PD        0.069496    0.543667    0.383062     0.005394
PD1647   PD        0.073731    0.578172    0.419049     0.005394
AU1648   AU        0.105657    0.541963    0.422016     0.007504
AU1649   AU        0.104446    0.578033    0.379644     0.007504
AU1650   AU        0.139792    0.542645    0.384614     0.007504
AU1651   AU        0.139813    0.578077    0.422563     0.007504
AU1652   AU        0.176025    0.541921    0.422750     0.007504
AU1653   AU        0.176584    0.577433    0.381819     0.007504
AU1654   AU        0.208127    0.540337    0.382342     0.007504
AU1655   AU        0.211026    0.576527    0.421372     0.007504
AU1656   AU        0.249694    0.540180    0.420012     0.007504
AU1657   AU        0.250063    0.576581    0.384535     0.007504
AU1658   AU        0.284483    0.540248    0.380612     0.007504
AU1659   AU        0.284476    0.579297    0.420657     0.007504
AU1660   AU        0.320552    0.539957    0.420579     0.007504
AU1661   AU        0.320090    0.578772    0.382313     0.007504
AU1662   AU        0.353985    0.540206    0.380997     0.007504
AU1663   AU        0.353945    0.577459    0.421681     0.007504
AU1664   AU        0.390053    0.539390    0.422449     0.007504
AU1665   AU        0.391886    0.575402    0.380378     0.007504
AU1666   AU        0.425975    0.540625    0.384181     0.007504
AU1667   AU        0.425285    0.577639    0.421383     0.007504
AU1668   AU        0.465422    0.541017    0.419869     0.007504
AU1669   AU        0.465486    0.577055    0.384455     0.007504
AU1670   AU        0.501398    0.540366    0.382044     0.007504
AU1671   AU        0.499560    0.578426    0.423550     0.007504
AU1672   AU        0.535696    0.540350    0.421691     0.007504
AU1673   AU        0.534572    0.578936    0.380472     0.007504
AU1674   AU        0.571285    0.543717    0.382069     0.007504
AU1675   AU        0.572538    0.575854    0.421476     0.007504
AU1676   AU        0.607939    0.539878    0.422045     0.007504
AU1677   AU        0.609555    0.575843    0.383470     0.007504
AU1678   AU        0.644777    0.541451    0.381327     0.007504
AU1679   AU        0.643701    0.574557    0.422427     0.007504
AU1680   AU        0.679380    0.539072    0.421477     0.007504
AU1681   AU        0.679563    0.574252    0.383247     0.007504
AU1682   AU        0.715476    0.540276    0.384167     0.007504
PD1683   PD        0.716026    0.570308    0.418729     0.005394
AU1684   AU        0.749526    0.535747    0.420922     0.007504
PD1685   PD        0.748665    0.577362    0.382154     0.005394
PD1686   PD        0.785841    0.539527    0.384789     0.005394
PD1687   PD        0.783592    0.586448    0.420228     0.005394
PD1688   PD        0.822058    0.533540    0.423378     0.005394
PD1689   PD        0.814159    0.580756    0.381005     0.005394
PD1690   PD        0.039856    0.611648    0.421744     0.005394
PD1691   PD        0.037959    0.644899    0.382931     0.005394
PD1692   PD        0.072815    0.613917    0.384809     0.005394
PD1693   PD        0.070021    0.649238    0.418694     0.005394
AU1694   AU        0.105838    0.613131    0.420446     0.007504
PD1695   PD        0.107017    0.650336    0.384518     0.005394
AU1696   AU        0.140699    0.611339    0.381656     0.007504
AU1697   AU        0.139226    0.650096    0.422529     0.007504
AU1698   AU        0.173049    0.613112    0.422745     0.007504
AU1699   AU        0.175314    0.648262    0.383338     0.007504
AU1700   AU        0.211007    0.614542    0.383370     0.007504
AU1701   AU        0.209043    0.649265    0.421419     0.007504
AU1702   AU        0.247393    0.616681    0.421787     0.007504
AU1703   AU        0.248084    0.650299    0.383539     0.007504
AU1704   AU        0.283962    0.613490    0.382566     0.007504
AU1705   AU        0.283783    0.652301    0.420652     0.007504
AU1706   AU        0.319466    0.613764    0.420992     0.007504
AU1707   AU        0.319316    0.648748    0.381246     0.007504
AU1708   AU        0.357500    0.613411    0.383242     0.007504
AU1709   AU        0.355751    0.649880    0.419623     0.007504
AU1710   AU        0.390684    0.614785    0.421035     0.007504
AU1711   AU        0.393296    0.648659    0.384102     0.007504
AU1712   AU        0.428489    0.613205    0.381508     0.007504
AU1713   AU        0.429393    0.649812    0.421561     0.007504
AU1714   AU        0.462378    0.613522    0.422896     0.007504
AU1715   AU        0.463788    0.650517    0.380635     0.007504
AU1716   AU        0.499330    0.614427    0.381710     0.007504
AU1717   AU        0.500937    0.651141    0.418585     0.007504
AU1718   AU        0.536753    0.614900    0.420488     0.007504
AU1719   AU        0.537019    0.650810    0.381410     0.007504
AU1720   AU        0.572531    0.611959    0.382850     0.007504
AU1721   AU        0.570771    0.650172    0.419917     0.007504
AU1722   AU        0.606853    0.610479    0.422765     0.007504
AU1723   AU        0.608592    0.649997    0.381225     0.007504
AU1724   AU        0.642578    0.614102    0.382158     0.007504
AU1725   AU        0.642375    0.648353    0.422653     0.007504
AU1726   AU        0.676681    0.614919    0.423076     0.007504
PD1727   PD        0.680031    0.647567    0.384900     0.005394
PD1728   PD        0.714173    0.615969    0.381394     0.005394
PD1729   PD        0.714857    0.651307    0.421995     0.005394
PD1730   PD        0.748686    0.619916    0.419380     0.005394
PD1731   PD        0.749849    0.650812    0.378582     0.005394
PD1732   PD        0.781936    0.615023    0.380672     0.005394
PD1733   PD        0.784923    0.649451    0.419999     0.005394
PD1734   PD        0.823637    0.615631    0.413325     0.005394
PD1735   PD        0.815564    0.650720    0.378805     0.005394
PD1736   PD        0.069883    0.682376    0.382406     0.005394
PD1737   PD        0.069596    0.715438    0.420663     0.005394
PD1738   PD        0.105453    0.684735    0.420062     0.005394
PD1739   PD        0.101149    0.718689    0.384540     0.005394
AU1740   AU        0.140644    0.683431    0.384926     0.007504
PD1741   PD        0.138780    0.723908    0.419570     0.005394
AU1742   AU        0.172865    0.685267    0.423470     0.007504
PD1743   PD        0.172817    0.720489    0.384293     0.005394
AU1744   AU        0.209934    0.684716    0.386770     0.007504
AU1745   AU        0.209783    0.719970    0.422432     0.007504
AU1746   AU        0.246407    0.686600    0.423346     0.007504
AU1747   AU        0.246616    0.721201    0.382102     0.007504
AU1748   AU        0.283092    0.686064    0.383001     0.007504
AU1749   AU        0.282389    0.719727    0.421911     0.007504
AU1750   AU        0.319999    0.687436    0.418454     0.007504
AU1751   AU        0.319301    0.723502    0.379797     0.007504
AU1752   AU        0.356563    0.686547    0.381115     0.007504
AU1753   AU        0.355263    0.720939    0.420256     0.007504
AU1754   AU        0.390157    0.685359    0.419023     0.007504
AU1755   AU        0.389969    0.722424    0.382841     0.007504
AU1756   AU        0.427170    0.686391    0.384364     0.007504
AU1757   AU        0.425062    0.721133    0.419914     0.007504
AU1758   AU        0.465935    0.686088    0.422406     0.007504
AU1759   AU        0.462866    0.721370    0.382985     0.007504
AU1760   AU        0.497732    0.686758    0.381766     0.007504
AU1761   AU        0.498855    0.722783    0.420983     0.007504
AU1762   AU        0.534495    0.686634    0.421258     0.007504
AU1763   AU        0.534631    0.723237    0.381407     0.007504
AU1764   AU        0.571905    0.685535    0.381741     0.007504
AU1765   AU        0.571349    0.719561    0.419000     0.007504
AU1766   AU        0.606590    0.684061    0.422299     0.007504
AU1767   AU        0.607249    0.719735    0.383126     0.007504
AU1768   AU        0.640459    0.684861    0.382493     0.007504
PD1769   PD        0.639621    0.718774    0.422022     0.005394
AU1770   AU        0.674972    0.683936    0.423734     0.007504
PD1771   PD        0.678231    0.718594    0.382205     0.005394
PD1772   PD        0.715215    0.682408    0.378588     0.005394
PD1773   PD        0.710088    0.718702    0.427931     0.005394
PD1774   PD        0.747615    0.685017    0.424388     0.005394
PD1775   PD        0.746504    0.719283    0.390149     0.005394
PD1776   PD        0.782820    0.685606    0.381645     0.005394
PD1777   PD        0.783677    0.720918    0.423425     0.005394
PD1778   PD        0.104162    0.754347    0.421527     0.005394
PD1779   PD        0.136758    0.756391    0.380670     0.005394
PD1780   PD        0.138057    0.790104    0.419469     0.005394
PD1781   PD        0.176820    0.755137    0.423261     0.005394
PD1782   PD        0.174861    0.788916    0.381850     0.005394
PD1783   PD        0.213293    0.756901    0.381735     0.005394
PD1784   PD        0.211460    0.791098    0.420097     0.005394
AU1785   AU        0.246238    0.753347    0.425311     0.007504
PD1786   PD        0.249283    0.789865    0.383458     0.005394
PD1787   PD        0.282635    0.757090    0.381304     0.005394
PD1788   PD        0.283036    0.792998    0.425671     0.005394
AU1789   AU        0.318850    0.758829    0.421985     0.007504
PD1790   PD        0.319979    0.789765    0.382717     0.005394
AU1791   AU        0.354783    0.754937    0.383649     0.007504
PD1792   PD        0.352958    0.791306    0.421777     0.005394
AU1793   AU        0.391335    0.757134    0.422741     0.007504
PD1794   PD        0.390137    0.790721    0.384145     0.005394
AU1795   AU        0.427677    0.754925    0.382308     0.007504
AU1796   AU        0.427333    0.788838    0.421570     0.007504
AU1797   AU        0.462676    0.755593    0.421240     0.007504
PD1798   PD        0.466391    0.791310    0.383892     0.005394
AU1799   AU        0.500176    0.757093    0.381714     0.007504
AU1800   AU        0.497988    0.788099    0.423945     0.007504
AU1801   AU        0.534739    0.755062    0.420770     0.007504
PD1802   PD        0.533271    0.793056    0.380099     0.005394
AU1803   AU        0.571276    0.755477    0.383214     0.007504
PD1804   PD        0.573120    0.793847    0.425678     0.005394
PD1805   PD        0.605908    0.757977    0.422132     0.005394
PD1806   PD        0.607012    0.790674    0.384635     0.005394
PD1807   PD        0.642442    0.754861    0.386787     0.005394
PD1808   PD        0.641159    0.790689    0.425816     0.005394
PD1809   PD        0.678621    0.754883    0.425550     0.005394
PD1810   PD        0.677518    0.790795    0.389731     0.005394
PD1811   PD        0.713145    0.755442    0.389704     0.005394
PD1812   PD        0.711709    0.792713    0.429063     0.005394
PD1813   PD        0.746618    0.754385    0.424827     0.005394
PD1814   PD        0.170320    0.865959    0.381191     0.005394
PD1815   PD        0.211497    0.825989    0.385423     0.005394
PD1816   PD        0.243657    0.827929    0.423544     0.005394
PD1817   PD        0.245349    0.859305    0.384372     0.005394
PD1818   PD        0.284321    0.827111    0.384089     0.005394
PD1819   PD        0.279969    0.858643    0.423663     0.005394
PD1820   PD        0.318513    0.824423    0.423979     0.005394
PD1821   PD        0.318699    0.859867    0.385503     0.005394
PD1822   PD        0.352018    0.826114    0.382769     0.005394
PD1823   PD        0.353545    0.859976    0.424462     0.005394
PD1824   PD        0.389354    0.824353    0.421820     0.005394
PD1825   PD        0.391665    0.863387    0.381977     0.005394
PD1826   PD        0.428335    0.828192    0.383290     0.005394
PD1827   PD        0.431125    0.859664    0.427784     0.005394
PD1828   PD        0.462471    0.822164    0.422545     0.005394
PD1829   PD        0.466596    0.861215    0.382284     0.005394
PD1830   PD        0.498220    0.826628    0.380299     0.005394
PD1831   PD        0.498469    0.864642    0.419293     0.005394
PD1832   PD        0.534115    0.820063    0.424645     0.005394
PD1833   PD        0.534292    0.857524    0.384664     0.005394
PD1834   PD        0.569152    0.822752    0.385066     0.005394
PD1835   PD        0.568894    0.857678    0.421358     0.005394
PD1836   PD        0.606505    0.825757    0.420027     0.005394
PD1837   PD        0.606291    0.859413    0.383623     0.005394
PD1838   PD        0.642581    0.824803    0.386610     0.005394
PD1839   PD        0.675864    0.825043    0.426000     0.005394
PD1840   PD        0.388416    0.896921    0.429967     0.005394
PD1841   PD        0.462840    0.892848    0.340377     0.005394
PD1842   PD        0.462660    0.893196    0.428455     0.005394
PD1843   PD        0.248691    0.080144    0.459891     0.005394
PD1844   PD        0.279862    0.077487    0.499749     0.005394
PD1845   PD        0.324952    0.076824    0.458918     0.005394
PD1846   PD        0.357992    0.040192    0.461456     0.005394
PD1847   PD        0.356131    0.077741    0.495831     0.005394
PD1848   PD        0.390224    0.046875    0.502055     0.005394
PD1849   PD        0.390675    0.080040    0.463613     0.005394
PD1850   PD        0.423923    0.043268    0.464793     0.005394
PD1851   PD        0.427322    0.079946    0.504365     0.005394
PD1852   PD        0.461963    0.046261    0.506726     0.005394
PD1853   PD        0.464869    0.076154    0.461896     0.005394
PD1854   PD        0.504221    0.041754    0.458916     0.005394
PD1855   PD        0.503858    0.078056    0.499115     0.005394
PD1856   PD        0.537585    0.081032    0.463320     0.005394
PD1857   PD        0.569257    0.080736    0.500722     0.005394
PD1858   PD        0.606142    0.077278    0.464875     0.005394
PD1859   PD        0.144222    0.149330    0.498651     0.005394
PD1860   PD        0.174895    0.115910    0.497430     0.005394
PD1861   PD        0.177619    0.147762    0.460085     0.005394
PD1862   PD        0.212831    0.114184    0.463551     0.005394
PD1863   PD        0.213257    0.148886    0.499639     0.005394
PD1864   PD        0.247159    0.115639    0.499804     0.005394
PD1865   PD        0.246937    0.150695    0.463939     0.005394
PD1866   PD        0.285129    0.115460    0.462663     0.005394
AU1867   AU        0.284780    0.150847    0.499983     0.007504
PD1868   PD        0.318059    0.112057    0.501393     0.005394
PD1869   PD        0.320151    0.147677    0.461810     0.005394
PD1870   PD        0.356072    0.112507    0.463103     0.005394
AU1871   AU        0.354830    0.147477    0.500319     0.007504
PD1872   PD        0.391200    0.114206    0.499381     0.005394
AU1873   AU        0.393023    0.145950    0.459964     0.007504
PD1874   PD        0.430046    0.112894    0.464033     0.005394
AU1875   AU        0.428340    0.147777    0.500328     0.007504
PD1876   PD        0.467859    0.113272    0.499762     0.005394
AU1877   AU        0.464664    0.149240    0.461326     0.007504
PD1878   PD        0.500780    0.114312    0.463592     0.005394
AU1879   AU        0.502778    0.149817    0.500219     0.007504
PD1880   PD        0.537535    0.117184    0.498969     0.005394
AU1881   AU        0.536655    0.150606    0.461648     0.007504
PD1882   PD        0.572343    0.113455    0.464019     0.005394
AU1883   AU        0.573085    0.151782    0.496942     0.007504
PD1884   PD        0.606155    0.116618    0.498451     0.005394
PD1885   PD        0.608116    0.149688    0.459385     0.005394
PD1886   PD        0.646777    0.115657    0.462345     0.005394
PD1887   PD        0.642969    0.150305    0.499610     0.005394
PD1888   PD        0.678804    0.114763    0.500563     0.005394
PD1889   PD        0.682881    0.147270    0.462456     0.005394
PD1890   PD        0.714550    0.147956    0.499952     0.005394
PD1891   PD        0.069990    0.216052    0.500134     0.005394
PD1892   PD        0.106798    0.182155    0.499872     0.005394
PD1893   PD        0.109307    0.218339    0.461771     0.005394
PD1894   PD        0.138107    0.179950    0.459053     0.005394
PD1895   PD        0.140505    0.219424    0.501139     0.005394
PD1896   PD        0.177462    0.181979    0.497734     0.005394
PD1897   PD        0.177636    0.217812    0.459831     0.005394
PD1898   PD        0.214181    0.183095    0.459452     0.005394
PD1899   PD        0.212695    0.218700    0.498561     0.005394
AU1900   AU        0.248574    0.184579    0.499167     0.007504
AU1901   AU        0.247576    0.218469    0.457757     0.007504
AU1902   AU        0.283082    0.184590    0.460748     0.007504
AU1903   AU        0.283139    0.220226    0.499251     0.007504
AU1904   AU        0.318439    0.183683    0.499727     0.007504
AU1905   AU        0.319112    0.218590    0.460100     0.007504
AU1906   AU        0.355798    0.181757    0.460777     0.007504
AU1907   AU        0.355755    0.217561    0.499082     0.007504
AU1908   AU        0.390158    0.179954    0.500124     0.007504
AU1909   AU        0.391033    0.216141    0.461328     0.007504
AU1910   AU        0.427654    0.183332    0.462632     0.007504
AU1911   AU        0.425646    0.217600    0.498973     0.007504
AU1912   AU        0.463639    0.183002    0.499785     0.007504
AU1913   AU        0.462207    0.218591    0.460806     0.007504
AU1914   AU        0.501835    0.182383    0.461406     0.007504
AU1915   AU        0.500125    0.216703    0.499612     0.007504
AU1916   AU        0.535241    0.183868    0.498096     0.007504
AU1917   AU        0.535419    0.217473    0.460274     0.007504
AU1918   AU        0.572111    0.184508    0.459550     0.007504
AU1919   AU        0.572481    0.218047    0.497629     0.007504
AU1920   AU        0.608566    0.185451    0.497743     0.007504
AU1921   AU        0.608638    0.218004    0.459148     0.007504
PD1922   PD        0.644025    0.184070    0.459723     0.005394
AU1923   AU        0.644185    0.219920    0.500689     0.007504
PD1924   PD        0.680578    0.182897    0.498468     0.005394
AU1925   AU        0.680327    0.219875    0.460604     0.007504
PD1926   PD        0.713647    0.181630    0.462789     0.005394
PD1927   PD        0.712297    0.221069    0.499094     0.005394
PD1928   PD        0.746115    0.186186    0.500268     0.005394
PD1929   PD        0.749866    0.220062    0.461550     0.005394
PD1930   PD        0.783405    0.218362    0.500155     0.005394
PD1931   PD        0.037448    0.290537    0.463434     0.005394
PD1932   PD        0.068910    0.252215    0.458313     0.005394
PD1933   PD        0.072600    0.291681    0.497345     0.005394
PD1934   PD        0.105239    0.253682    0.501122     0.005394
PD1935   PD        0.105172    0.291513    0.461031     0.005394
PD1936   PD        0.140571    0.255203    0.458348     0.005394
PD1937   PD        0.141548    0.289664    0.497239     0.005394
PD1938   PD        0.177087    0.254990    0.499291     0.005394
AU1939   AU        0.176125    0.290542    0.460322     0.007504
AU1940   AU        0.212888    0.256001    0.458668     0.007504
AU1941   AU        0.212420    0.289592    0.499329     0.007504
AU1942   AU        0.246933    0.253704    0.498535     0.007504
AU1943   AU        0.248306    0.288818    0.462316     0.007504
AU1944   AU        0.282913    0.253074    0.458835     0.007504
AU1945   AU        0.281607    0.287850    0.500739     0.007504
AU1946   AU        0.319922    0.252177    0.497372     0.007504
AU1947   AU        0.317523    0.290292    0.459513     0.007504
AU1948   AU        0.357082    0.253526    0.460862     0.007504
AU1949   AU        0.354141    0.290877    0.499234     0.007504
AU1950   AU        0.391894    0.252588    0.497504     0.007504
AU1951   AU        0.394061    0.292410    0.461240     0.007504
AU1952   AU        0.426459    0.254103    0.461272     0.007504
AU1953   AU        0.429334    0.288868    0.498725     0.007504
AU1954   AU        0.463593    0.252872    0.497289     0.007504
AU1955   AU        0.463689    0.291779    0.460780     0.007504
AU1956   AU        0.499243    0.253034    0.459143     0.007504
AU1957   AU        0.498275    0.288822    0.497189     0.007504
AU1958   AU        0.536143    0.255338    0.497934     0.007504
AU1959   AU        0.537821    0.288716    0.460877     0.007504
AU1960   AU        0.574255    0.251560    0.460550     0.007504
AU1961   AU        0.573303    0.287790    0.499235     0.007504
AU1962   AU        0.609795    0.252032    0.499456     0.007504
AU1963   AU        0.609520    0.290248    0.459799     0.007504
AU1964   AU        0.644233    0.254611    0.460318     0.007504
AU1965   AU        0.645276    0.290194    0.499852     0.007504
AU1966   AU        0.677362    0.254107    0.499639     0.007504
AU1967   AU        0.681388    0.291107    0.460030     0.007504
AU1968   AU        0.712851    0.255255    0.462115     0.007504
AU1969   AU        0.714156    0.290887    0.498618     0.007504
PD1970   PD        0.750995    0.255199    0.497431     0.005394
AU1971   AU        0.749018    0.289838    0.460944     0.007504
PD1972   PD        0.785688    0.253369    0.460393     0.005394
PD1973   PD        0.784481    0.291597    0.499240     0.005394
PD1974   PD        0.819441    0.290527    0.465779     0.005394
PD1975   PD        0.037584    0.325055    0.500211     0.005394
PD1976   PD        0.035771    0.361499    0.462822     0.005394
PD1977   PD        0.068905    0.326518    0.459890     0.005394
PD1978   PD        0.074469    0.361544    0.499383     0.005394
PD1979   PD        0.106644    0.325315    0.501191     0.005394
AU1980   AU        0.106972    0.360805    0.460207     0.007504
AU1981   AU        0.139832    0.324576    0.460016     0.007504
AU1982   AU        0.139625    0.361450    0.498886     0.007504
AU1983   AU        0.174674    0.325489    0.499352     0.007504
AU1984   AU        0.174627    0.359127    0.460465     0.007504
AU1985   AU        0.211038    0.326295    0.460847     0.007504
AU1986   AU        0.209781    0.361232    0.498111     0.007504
AU1987   AU        0.246029    0.326768    0.499044     0.007504
AU1988   AU        0.245189    0.360878    0.459896     0.007504
AU1989   AU        0.283379    0.325152    0.459924     0.007504
AU1990   AU        0.283044    0.361739    0.499943     0.007504
AU1991   AU        0.318843    0.323345    0.498523     0.007504
AU1992   AU        0.318484    0.362517    0.462233     0.007504
AU1993   AU        0.356259    0.326591    0.461371     0.007504
AU1994   AU        0.354531    0.361493    0.497809     0.007504
AU1995   AU        0.392290    0.325099    0.498133     0.007504
AU1996   AU        0.391820    0.361884    0.463238     0.007504
AU1997   AU        0.427917    0.327126    0.461540     0.007504
AU1998   AU        0.428754    0.361902    0.499147     0.007504
AU1999   AU        0.464366    0.325127    0.499252     0.007504
AU2000   AU        0.465779    0.360276    0.461937     0.007504
AU2001   AU        0.499774    0.323926    0.458609     0.007504
AU2002   AU        0.498448    0.363534    0.499384     0.007504
AU2003   AU        0.534987    0.323180    0.497352     0.007504
AU2004   AU        0.535749    0.361568    0.458073     0.007504
AU2005   AU        0.572940    0.325247    0.461713     0.007504
AU2006   AU        0.570716    0.361220    0.500272     0.007504
AU2007   AU        0.608912    0.324329    0.498637     0.007504
AU2008   AU        0.608378    0.360049    0.458845     0.007504
AU2009   AU        0.646614    0.324033    0.459151     0.007504
AU2010   AU        0.644206    0.362299    0.500013     0.007504
AU2011   AU        0.678210    0.326135    0.499833     0.007504
AU2012   AU        0.680376    0.362018    0.460241     0.007504
AU2013   AU        0.714167    0.325749    0.460902     0.007504
AU2014   AU        0.715870    0.362393    0.499525     0.007504
AU2015   AU        0.749287    0.325264    0.498372     0.007504
AU2016   AU        0.750529    0.362109    0.460036     0.007504
PD2017   PD        0.781925    0.326150    0.462707     0.005394
PD2018   PD        0.782345    0.362888    0.501962     0.005394
PD2019   PD        0.815809    0.329402    0.499266     0.005394
PD2020   PD        0.820174    0.362565    0.459269     0.005394
PD2021   PD        0.003760    0.399175    0.460767     0.005394
PD2022   PD        0.003674    0.436870    0.498207     0.005394
PD2023   PD        0.036867    0.395198    0.499064     0.005394
PD2024   PD        0.038237    0.431761    0.459050     0.005394
PD2025   PD        0.071199    0.397359    0.460190     0.005394
PD2026   PD        0.072851    0.434025    0.500374     0.005394
AU2027   AU        0.107279    0.398703    0.500666     0.007504
AU2028   AU        0.104731    0.433079    0.462311     0.007504
AU2029   AU        0.140422    0.399439    0.461212     0.007504
AU2030   AU        0.139915    0.434079    0.500326     0.007504
AU2031   AU        0.175834    0.397251    0.498101     0.007504
AU2032   AU        0.174033    0.434873    0.459569     0.007504
AU2033   AU        0.208498    0.395601    0.459200     0.007504
AU2034   AU        0.208572    0.434529    0.500345     0.007504
AU2035   AU        0.245423    0.396063    0.499195     0.007504
AU2036   AU        0.245443    0.435992    0.462676     0.007504
AU2037   AU        0.281619    0.396499    0.460079     0.007504
AU2038   AU        0.281290    0.433281    0.500945     0.007504
AU2039   AU        0.318204    0.396726    0.501065     0.007504
AU2040   AU        0.319287    0.431715    0.460197     0.007504
AU2041   AU        0.354909    0.397630    0.460918     0.007504
AU2042   AU        0.355908    0.432958    0.501195     0.007504
AU2043   AU        0.391508    0.396577    0.501779     0.007504
AU2044   AU        0.390431    0.430992    0.459785     0.007504
AU2045   AU        0.426661    0.396029    0.459077     0.007504
AU2046   AU        0.428208    0.431891    0.497597     0.007504
AU2047   AU        0.464264    0.396672    0.499397     0.007504
AU2048   AU        0.465321    0.432959    0.461222     0.007504
AU2049   AU        0.499736    0.398181    0.460345     0.007504
AU2050   AU        0.498349    0.433466    0.499372     0.007504
AU2051   AU        0.535444    0.400023    0.499472     0.007504
AU2052   AU        0.535091    0.435280    0.460691     0.007504
AU2053   AU        0.569910    0.397195    0.460022     0.007504
AU2054   AU        0.572050    0.435743    0.499539     0.007504
AU2055   AU        0.606560    0.396043    0.500302     0.007504
AU2056   AU        0.608936    0.433065    0.459247     0.007504
AU2057   AU        0.644117    0.397459    0.462887     0.007504
AU2058   AU        0.646196    0.432371    0.499615     0.007504
AU2059   AU        0.682518    0.396353    0.498716     0.007504
AU2060   AU        0.679094    0.431951    0.459695     0.007504
AU2061   AU        0.717208    0.398357    0.460029     0.007504
AU2062   AU        0.714682    0.432716    0.497159     0.007504
AU2063   AU        0.748506    0.399175    0.501330     0.007504
AU2064   AU        0.750140    0.434250    0.459937     0.007504
AU2065   AU        0.783379    0.397099    0.461313     0.007504
AU2066   AU        0.784130    0.431448    0.498499     0.007504
PD2067   PD        0.818886    0.396407    0.497070     0.005394
PD2068   PD        0.820355    0.432180    0.464086     0.005394
PD2069   PD        0.855973    0.398009    0.464402     0.005394
PD2070   PD        0.854611    0.431165    0.502552     0.005394
PD2071   PD        0.006384    0.470295    0.461731     0.005394
PD2072   PD        0.004269    0.509974    0.501862     0.005394
PD2073   PD        0.035066    0.475068    0.502476     0.005394
PD2074   PD        0.039560    0.506273    0.462058     0.005394
PD2075   PD        0.070003    0.469307    0.461120     0.005394
PD2076   PD        0.071025    0.506762    0.499958     0.005394
AU2077   AU        0.104028    0.469116    0.500436     0.007504
AU2078   AU        0.106212    0.504643    0.460747     0.007504
AU2079   AU        0.138948    0.468899    0.461817     0.007504
AU2080   AU        0.139902    0.504262    0.500205     0.007504
AU2081   AU        0.173955    0.470199    0.500841     0.007504
AU2082   AU        0.174145    0.503875    0.461283     0.007504
AU2083   AU        0.209587    0.471171    0.460521     0.007504
AU2084   AU        0.212112    0.506328    0.499131     0.007504
AU2085   AU        0.246301    0.471265    0.501603     0.007504
AU2086   AU        0.247063    0.503875    0.458939     0.007504
AU2087   AU        0.282155    0.470636    0.462907     0.007504
AU2088   AU        0.280071    0.505073    0.499963     0.007504
AU2089   AU        0.319865    0.469419    0.497811     0.007504
AU2090   AU        0.319661    0.505267    0.459333     0.007504
AU2091   AU        0.356068    0.471496    0.461415     0.007504
AU2092   AU        0.356299    0.504711    0.502056     0.007504
AU2093   AU        0.391276    0.465983    0.500208     0.007504
AU2094   AU        0.393910    0.505636    0.460786     0.007504
AU2095   AU        0.429489    0.469062    0.460791     0.007504
AU2096   AU        0.427677    0.505414    0.499839     0.007504
AU2097   AU        0.464156    0.469885    0.500643     0.007504
AU2098   AU        0.463049    0.505929    0.457892     0.007504
AU2099   AU        0.500021    0.468205    0.460481     0.007504
AU2100   AU        0.498320    0.504295    0.499990     0.007504
AU2101   AU        0.533585    0.470203    0.499647     0.007504
AU2102   AU        0.532559    0.505750    0.461575     0.007504
AU2103   AU        0.571245    0.468944    0.458902     0.007504
AU2104   AU        0.571750    0.504705    0.500106     0.007504
AU2105   AU        0.608390    0.469337    0.497299     0.007504
AU2106   AU        0.607837    0.504422    0.462319     0.007504
AU2107   AU        0.647151    0.468866    0.459865     0.007504
AU2108   AU        0.645000    0.503940    0.500611     0.007504
AU2109   AU        0.681032    0.469315    0.497816     0.007504
AU2110   AU        0.679685    0.503974    0.461191     0.007504
AU2111   AU        0.716227    0.468616    0.459565     0.007504
AU2112   AU        0.715740    0.503472    0.499031     0.007504
AU2113   AU        0.750197    0.466844    0.500154     0.007504
AU2114   AU        0.749320    0.501957    0.460040     0.007504
AU2115   AU        0.786971    0.467725    0.461899     0.007504
PD2116   PD        0.785342    0.499224    0.498933     0.005394
PD2117   PD        0.821868    0.466217    0.500039     0.005394
PD2118   PD        0.824658    0.499446    0.460582     0.005394
PD2119   PD        0.855703    0.464264    0.462350     0.005394
PD2120   PD        0.861161    0.499711    0.498395     0.005394
PD2121   PD        0.005039    0.540551    0.462952     0.005394
PD2122   PD        0.035168    0.544917    0.504123     0.005394
PD2123   PD        0.038677    0.576217    0.458708     0.005394
PD2124   PD        0.072720    0.542294    0.460017     0.005394
PD2125   PD        0.073313    0.576801    0.498708     0.005394
AU2126   AU        0.107740    0.540839    0.500150     0.007504
AU2127   AU        0.107036    0.579198    0.460399     0.007504
AU2128   AU        0.140011    0.542102    0.460118     0.007504
AU2129   AU        0.142680    0.577517    0.497864     0.007504
AU2130   AU        0.176334    0.538654    0.500812     0.007504
AU2131   AU        0.176008    0.577584    0.459143     0.007504
AU2132   AU        0.211958    0.541112    0.458705     0.007504
AU2133   AU        0.211326    0.575257    0.496816     0.007504
AU2134   AU        0.246656    0.540205    0.499346     0.007504
AU2135   AU        0.248498    0.574581    0.459196     0.007504
AU2136   AU        0.281973    0.540165    0.461517     0.007504
AU2137   AU        0.284845    0.577044    0.499216     0.007504
AU2138   AU        0.318769    0.539723    0.498419     0.007504
AU2139   AU        0.318842    0.575841    0.460670     0.007504
AU2140   AU        0.355305    0.541498    0.458652     0.007504
AU2141   AU        0.357291    0.579316    0.499241     0.007504
AU2142   AU        0.392055    0.542157    0.501805     0.007504
AU2143   AU        0.391450    0.578226    0.461626     0.007504
AU2144   AU        0.427870    0.542573    0.459359     0.007504
AU2145   AU        0.426069    0.578392    0.501143     0.007504
AU2146   AU        0.462889    0.540516    0.498345     0.007504
AU2147   AU        0.462474    0.576188    0.459108     0.007504
AU2148   AU        0.498039    0.542235    0.459902     0.007504
AU2149   AU        0.498905    0.576114    0.498355     0.007504
AU2150   AU        0.535409    0.540289    0.499912     0.007504
AU2151   AU        0.535783    0.574825    0.460230     0.007504
AU2152   AU        0.572354    0.540701    0.461946     0.007504
AU2153   AU        0.569517    0.576294    0.500334     0.007504
AU2154   AU        0.606370    0.540386    0.500318     0.007504
AU2155   AU        0.607484    0.576362    0.459465     0.007504
AU2156   AU        0.644698    0.540833    0.461483     0.007504
AU2157   AU        0.642286    0.575388    0.500578     0.007504
AU2158   AU        0.679219    0.540583    0.501694     0.007504
AU2159   AU        0.677717    0.579044    0.460858     0.007504
PD2160   PD        0.715889    0.536068    0.457136     0.005394
PD2161   PD        0.710185    0.581691    0.500595     0.005394
PD2162   PD        0.753942    0.535944    0.496546     0.005394
PD2163   PD        0.754799    0.567990    0.458473     0.005394
PD2164   PD        0.788344    0.532886    0.463514     0.005394
PD2165   PD        0.780529    0.578997    0.508884     0.005394
PD2166   PD        0.823662    0.531858    0.498470     0.005394
PD2167   PD        0.860919    0.533742    0.460563     0.005394
PD2168   PD        0.892256    0.529238    0.421815     0.005394
PD2169   PD        0.038803    0.613621    0.497617     0.005394
PD2170   PD        0.035181    0.683921    0.416075     0.005394
PD2171   PD        0.072886    0.615124    0.459198     0.005394
PD2172   PD        0.072869    0.650459    0.502216     0.005394
PD2173   PD        0.107958    0.615471    0.499306     0.005394
PD2174   PD        0.104865    0.650856    0.460148     0.005394
AU2175   AU        0.138228    0.614548    0.459200     0.007504
AU2176   AU        0.141937    0.648549    0.499798     0.007504
AU2177   AU        0.177509    0.615115    0.498537     0.007504
AU2178   AU        0.174958    0.650398    0.461156     0.007504
AU2179   AU        0.208825    0.615254    0.459600     0.007504
AU2180   AU        0.209014    0.649591    0.498583     0.007504
AU2181   AU        0.244838    0.614413    0.497817     0.007504
AU2182   AU        0.245086    0.650859    0.460515     0.007504
AU2183   AU        0.284095    0.613367    0.459455     0.007504
AU2184   AU        0.282333    0.650041    0.496964     0.007504
AU2185   AU        0.319427    0.615099    0.498690     0.007504
AU2186   AU        0.319411    0.651246    0.457311     0.007504
AU2187   AU        0.358123    0.613704    0.461823     0.007504
AU2188   AU        0.356546    0.649039    0.498290     0.007504
AU2189   AU        0.391077    0.613569    0.501473     0.007504
AU2190   AU        0.392327    0.650640    0.459799     0.007504
AU2191   AU        0.425695    0.614603    0.460023     0.007504
AU2192   AU        0.426419    0.650237    0.498951     0.007504
AU2193   AU        0.463815    0.612720    0.499959     0.007504
AU2194   AU        0.461949    0.650294    0.463544     0.007504
AU2195   AU        0.497752    0.613840    0.460955     0.007504
AU2196   AU        0.498147    0.650441    0.500119     0.007504
AU2197   AU        0.534120    0.612159    0.497688     0.007504
AU2198   AU        0.534614    0.648913    0.459614     0.007504
AU2199   AU        0.570425    0.613985    0.458733     0.007504
AU2200   AU        0.570649    0.651028    0.501824     0.007504
AU2201   AU        0.607896    0.614130    0.500749     0.007504
AU2202   AU        0.607386    0.648269    0.461769     0.007504
AU2203   AU        0.642357    0.614781    0.461049     0.007504
AU2204   AU        0.641506    0.648492    0.501683     0.007504
AU2205   AU        0.675148    0.613501    0.502024     0.007504
AU2206   AU        0.677794    0.650309    0.462638     0.007504
PD2207   PD        0.711505    0.617828    0.465435     0.005394
AU2208   AU        0.710558    0.650936    0.502005     0.007504
PD2209   PD        0.750543    0.617572    0.504165     0.005394
PD2210   PD        0.746673    0.652269    0.461240     0.005394
PD2211   PD        0.788260    0.619319    0.462280     0.005394
PD2212   PD        0.783974    0.653784    0.502565     0.005394
PD2213   PD        0.830628    0.615023    0.487024     0.005394
PD2214   PD        0.819527    0.655581    0.463789     0.005394
PD2215   PD        0.067842    0.685188    0.457427     0.005394
PD2216   PD        0.069456    0.716432    0.499532     0.005394
PD2217   PD        0.105870    0.685269    0.498979     0.005394
PD2218   PD        0.104628    0.718280    0.456385     0.005394
PD2219   PD        0.139679    0.684110    0.459055     0.005394
PD2220   PD        0.140060    0.723058    0.493934     0.005394
AU2221   AU        0.176222    0.684791    0.497091     0.007504
AU2222   AU        0.174833    0.719637    0.459638     0.007504
AU2223   AU        0.210623    0.685174    0.457882     0.007504
AU2224   AU        0.211011    0.717809    0.496566     0.007504
AU2225   AU        0.247118    0.684834    0.496492     0.007504
AU2226   AU        0.247650    0.719516    0.461067     0.007504
AU2227   AU        0.282605    0.687672    0.460451     0.007504
AU2228   AU        0.281873    0.720471    0.497219     0.007504
AU2229   AU        0.317195    0.685950    0.498736     0.007504
AU2230   AU        0.319282    0.720718    0.458199     0.007504
AU2231   AU        0.354709    0.685592    0.459577     0.007504
AU2232   AU        0.354313    0.720527    0.498957     0.007504
AU2233   AU        0.392523    0.685420    0.498469     0.007504
AU2234   AU        0.390916    0.721726    0.460358     0.007504
AU2235   AU        0.427506    0.686412    0.459497     0.007504
AU2236   AU        0.429783    0.720700    0.499022     0.007504
AU2237   AU        0.461961    0.685520    0.499547     0.007504
AU2238   AU        0.462460    0.721226    0.460498     0.007504
AU2239   AU        0.499015    0.687961    0.460955     0.007504
AU2240   AU        0.498246    0.722900    0.500053     0.007504
AU2241   AU        0.535156    0.684471    0.498849     0.007504
AU2242   AU        0.535345    0.722853    0.459679     0.007504
AU2243   AU        0.571015    0.683238    0.460155     0.007504
AU2244   AU        0.570749    0.717793    0.500493     0.007504
AU2245   AU        0.607363    0.685389    0.499605     0.007504
AU2246   AU        0.607214    0.717438    0.462252     0.007504
AU2247   AU        0.641851    0.682056    0.460957     0.007504
AU2248   AU        0.641339    0.718865    0.500373     0.007504
AU2249   AU        0.675236    0.684465    0.500973     0.007504
PD2250   PD        0.674632    0.718153    0.462939     0.005394
PD2251   PD        0.712446    0.684730    0.462039     0.005394
PD2252   PD        0.711286    0.719564    0.501787     0.005394
PD2253   PD        0.749148    0.685643    0.502593     0.005394
PD2254   PD        0.746769    0.720646    0.462807     0.005394
PD2255   PD        0.782707    0.684826    0.458414     0.005394
PD2256   PD        0.779457    0.716042    0.503655     0.005394
PD2257   PD        0.103327    0.753862    0.496827     0.005394
PD2258   PD        0.139679    0.756849    0.455656     0.005394
PD2259   PD        0.139652    0.793195    0.495917     0.005394
PD2260   PD        0.175556    0.754800    0.494906     0.005394
PD2261   PD        0.175441    0.790823    0.460157     0.005394
AU2262   AU        0.212199    0.755556    0.460840     0.007504
PD2263   PD        0.209046    0.791389    0.498472     0.005394
AU2264   AU        0.246022    0.756364    0.497197     0.007504
PD2265   PD        0.246619    0.790638    0.461443     0.005394
AU2266   AU        0.282828    0.755463    0.460956     0.007504
PD2267   PD        0.281874    0.791068    0.498497     0.005394
AU2268   AU        0.319399    0.755586    0.496991     0.007504
AU2269   AU        0.318052    0.791414    0.463683     0.007504
AU2270   AU        0.357235    0.756284    0.458566     0.007504
AU2271   AU        0.355872    0.788568    0.501279     0.007504
AU2272   AU        0.393583    0.756002    0.498263     0.007504
AU2273   AU        0.392390    0.789250    0.462994     0.007504
AU2274   AU        0.426915    0.756635    0.461513     0.007504
AU2275   AU        0.428062    0.790201    0.498860     0.007504
AU2276   AU        0.462247    0.756461    0.499919     0.007504
AU2277   AU        0.462787    0.790284    0.462943     0.007504
AU2278   AU        0.497076    0.754885    0.461187     0.007504
AU2279   AU        0.497878    0.790087    0.500730     0.007504
AU2280   AU        0.533532    0.754378    0.499101     0.007504
PD2281   PD        0.535254    0.788191    0.460796     0.005394
AU2282   AU        0.571688    0.754421    0.459477     0.007504
PD2283   PD        0.567252    0.792097    0.502051     0.005394
PD2284   PD        0.607636    0.754502    0.503571     0.005394
PD2285   PD        0.604382    0.792053    0.462460     0.005394
PD2286   PD        0.641693    0.754501    0.459321     0.005394
PD2287   PD        0.641136    0.792068    0.501484     0.005394
PD2288   PD        0.674117    0.753902    0.501886     0.005394
PD2289   PD        0.678898    0.789557    0.463021     0.005394
PD2290   PD        0.710439    0.751566    0.463389     0.005394
PD2291   PD        0.712627    0.788899    0.581880     0.005394
PD2292   PD        0.745973    0.755992    0.501712     0.005394
PD2293   PD        0.178152    0.829588    0.502347     0.005394
PD2294   PD        0.208807    0.827419    0.458805     0.005394
PD2295   PD        0.247609    0.826607    0.499871     0.005394
PD2296   PD        0.249390    0.859789    0.464148     0.005394
PD2297   PD        0.284530    0.826799    0.462857     0.005394
PD2298   PD        0.284853    0.862063    0.504421     0.005394
PD2299   PD        0.319945    0.826123    0.499248     0.005394
PD2300   PD        0.319325    0.860827    0.459545     0.005394
PD2301   PD        0.355004    0.825634    0.461846     0.005394
PD2302   PD        0.351590    0.861689    0.496455     0.005394
PD2303   PD        0.390490    0.827528    0.502836     0.005394
PD2304   PD        0.393559    0.858694    0.462538     0.005394
PD2305   PD        0.428049    0.823981    0.461114     0.005394
PD2306   PD        0.425487    0.859980    0.499416     0.005394
PD2307   PD        0.464072    0.824373    0.500650     0.005394
PD2308   PD        0.464452    0.855343    0.463161     0.005394
PD2309   PD        0.501003    0.821353    0.461943     0.005394
PD2310   PD        0.500765    0.858556    0.503311     0.005394
PD2311   PD        0.534183    0.825310    0.501701     0.005394
PD2312   PD        0.534217    0.859546    0.459840     0.005394
PD2313   PD        0.569438    0.828600    0.462537     0.005394
PD2314   PD        0.571639    0.860425    0.501637     0.005394
PD2315   PD        0.606353    0.826007    0.499610     0.005394
PD2316   PD        0.605200    0.860380    0.461137     0.005394
PD2317   PD        0.641240    0.825633    0.463061     0.005394
PD2318   PD        0.677710    0.829304    0.497630     0.005394
PD2319   PD        0.357381    0.896377    0.459192     0.005394
PD2320   PD        0.387243    0.893876    0.500827     0.005394
PD2321   PD        0.423736    0.898735    0.466949     0.005394
PD2322   PD        0.463427    0.889438    0.501315     0.005394
PD2323   PD        0.497326    0.897434    0.460891     0.005394
PD2324   PD        0.247969    0.082275    0.542160     0.005394
PD2325   PD        0.280820    0.078963    0.579669     0.005394
PD2326   PD        0.317330    0.077498    0.543688     0.005394
PD2327   PD        0.357514    0.082945    0.577159     0.005394
PD2328   PD        0.387728    0.077574    0.538837     0.005394
PD2329   PD        0.453098    0.000714    0.547505     0.005394
PD2330   PD        0.429781    0.078952    0.578806     0.005394
PD2331   PD        0.465475    0.081882    0.540179     0.005394
PD2332   PD        0.501474    0.079884    0.577075     0.005394
PD2333   PD        0.535990    0.083854    0.539322     0.005394
PD2334   PD        0.539100    0.049296    0.577857     0.005394
PD2335   PD        0.605597    0.081372    0.536227     0.005394
PD2336   PD        0.178238    0.148409    0.535342     0.005394
PD2337   PD        0.212351    0.111556    0.533226     0.005394
PD2338   PD        0.212898    0.147693    0.572672     0.005394
PD2339   PD        0.248513    0.114565    0.575455     0.005394
PD2340   PD        0.249593    0.148337    0.537578     0.005394
PD2341   PD        0.285179    0.112765    0.537823     0.005394
PD2342   PD        0.284384    0.147578    0.575208     0.005394
PD2343   PD        0.318422    0.115526    0.576192     0.005394
AU2344   AU        0.318608    0.147767    0.537514     0.007504
PD2345   PD        0.356069    0.113419    0.538478     0.005394
PD2346   PD        0.356215    0.147935    0.573926     0.005394
PD2347   PD        0.392442    0.113526    0.579164     0.005394
AU2348   AU        0.394076    0.148403    0.538443     0.007504
PD2349   PD        0.430453    0.117200    0.540407     0.005394
AU2350   AU        0.429327    0.151448    0.576945     0.007504
PD2351   PD        0.465331    0.116609    0.576292     0.005394
AU2352   AU        0.464888    0.151764    0.538463     0.007504
PD2353   PD        0.500715    0.116926    0.541642     0.005394
AU2354   AU        0.498423    0.150952    0.576459     0.007504
PD2355   PD        0.536502    0.115429    0.579305     0.005394
AU2356   AU        0.535647    0.150146    0.538273     0.007504
PD2357   PD        0.570287    0.115756    0.535190     0.005394
PD2358   PD        0.570181    0.151990    0.577059     0.005394
PD2359   PD        0.571750    0.085891    0.575538     0.005394
PD2360   PD        0.608069    0.150986    0.536752     0.005394
PD2361   PD        0.643834    0.118813    0.537515     0.005394
PD2362   PD        0.642679    0.153455    0.576150     0.005394
PD2363   PD        0.680843    0.152323    0.537962     0.005394
PD2364   PD        0.105221    0.217642    0.539506     0.005394
PD2365   PD        0.140608    0.183590    0.536834     0.005394
PD2366   PD        0.141362    0.215817    0.576922     0.005394
PD2367   PD        0.177662    0.184107    0.578074     0.005394
PD2368   PD        0.178968    0.216255    0.539966     0.005394
PD2369   PD        0.214506    0.183662    0.537947     0.005394
PD2370   PD        0.212279    0.220343    0.581202     0.005394
PD2371   PD        0.247753    0.185255    0.575946     0.005394
AU2372   AU        0.248520    0.219851    0.538116     0.007504
AU2373   AU        0.284533    0.185685    0.537696     0.007504
AU2374   AU        0.283895    0.220048    0.580032     0.007504
AU2375   AU        0.318609    0.183459    0.575133     0.007504
AU2376   AU        0.320223    0.218931    0.537564     0.007504
AU2377   AU        0.355806    0.182607    0.537146     0.007504
AU2378   AU        0.354947    0.218222    0.574182     0.007504
AU2379   AU        0.390669    0.183799    0.576496     0.007504
AU2380   AU        0.390263    0.216254    0.536390     0.007504
AU2381   AU        0.427053    0.183929    0.537647     0.007504
AU2382   AU        0.427164    0.217450    0.576490     0.007504
AU2383   AU        0.464547    0.185142    0.576019     0.007504
AU2384   AU        0.463569    0.218888    0.539077     0.007504
AU2385   AU        0.501329    0.184469    0.536682     0.007504
AU2386   AU        0.500643    0.220785    0.576502     0.007504
AU2387   AU        0.533779    0.184856    0.575441     0.007504
AU2388   AU        0.536635    0.218510    0.537986     0.007504
AU2389   AU        0.571660    0.185176    0.538163     0.007504
AU2390   AU        0.571349    0.217618    0.577416     0.007504
PD2391   PD        0.607859    0.185993    0.578164     0.005394
AU2392   AU        0.607563    0.220564    0.538170     0.007504
PD2393   PD        0.644064    0.186171    0.537391     0.005394
AU2394   AU        0.644233    0.220108    0.578989     0.007504
PD2395   PD        0.679183    0.185063    0.574972     0.005394
AU2396   AU        0.680545    0.219992    0.539343     0.007504
PD2397   PD        0.714145    0.184388    0.540303     0.005394
PD2398   PD        0.717445    0.218376    0.578407     0.005394
PD2399   PD        0.747484    0.221100    0.535945     0.005394
PD2400   PD        0.038623    0.292499    0.535404     0.005394
PD2401   PD        0.069699    0.255507    0.536831     0.005394
PD2402   PD        0.069538    0.293204    0.575658     0.005394
PD2403   PD        0.104272    0.255262    0.575339     0.005394
PD2404   PD        0.105347    0.289949    0.538315     0.005394
PD2405   PD        0.143556    0.250480    0.542058     0.005394
PD2406   PD        0.141876    0.289639    0.579111     0.005394
PD2407   PD        0.176995    0.253202    0.579476     0.005394
PD2408   PD        0.175742    0.292398    0.539045     0.005394
AU2409   AU        0.212738    0.254021    0.538316     0.007504
AU2410   AU        0.211213    0.289593    0.578833     0.007504
AU2411   AU        0.248572    0.253973    0.579004     0.007504
AU2412   AU        0.247203    0.288918    0.537983     0.007504
AU2413   AU        0.283729    0.252977    0.537897     0.007504
AU2414   AU        0.282567    0.292236    0.577652     0.007504
AU2415   AU        0.317943    0.255344    0.578410     0.007504
AU2416   AU        0.318507    0.291720    0.538336     0.007504
AU2417   AU        0.354158    0.253696    0.537165     0.007504
AU2418   AU        0.355596    0.289703    0.576004     0.007504
AU2419   AU        0.390761    0.252349    0.577458     0.007504
AU2420   AU        0.389361    0.289477    0.536926     0.007504
AU2421   AU        0.427117    0.250660    0.539210     0.007504
AU2422   AU        0.426245    0.289010    0.576879     0.007504
AU2423   AU        0.464618    0.254277    0.577330     0.007504
AU2424   AU        0.463366    0.290586    0.539521     0.007504
AU2425   AU        0.499706    0.252539    0.538466     0.007504
AU2426   AU        0.500763    0.291195    0.577647     0.007504
AU2427   AU        0.535350    0.254075    0.578510     0.007504
AU2428   AU        0.535759    0.289011    0.537825     0.007504
AU2429   AU        0.570663    0.252438    0.538551     0.007504
AU2430   AU        0.572693    0.288977    0.576573     0.007504
AU2431   AU        0.608395    0.255746    0.576702     0.007504
AU2432   AU        0.608424    0.288907    0.539210     0.007504
AU2433   AU        0.644312    0.254736    0.539327     0.007504
AU2434   AU        0.644486    0.290529    0.577216     0.007504
AU2435   AU        0.680036    0.252699    0.576985     0.007504
AU2436   AU        0.680177    0.287372    0.538773     0.007504
PD2437   PD        0.715471    0.254757    0.534869     0.005394
PD2438   PD        0.713533    0.288823    0.574414     0.005394
PD2439   PD        0.746353    0.251637    0.576932     0.005394
PD2440   PD        0.748881    0.289388    0.535590     0.005394
PD2441   PD        0.781497    0.254686    0.539597     0.005394
PD2442   PD        0.785161    0.291044    0.572441     0.005394
PD2443   PD        0.818250    0.293429    0.535876     0.005394
PD2444   PD        0.033874    0.327761    0.571946     0.005394
PD2445   PD        0.036415    0.364050    0.539164     0.005394
PD2446   PD        0.072321    0.325236    0.537904     0.005394
PD2447   PD        0.071923    0.363958    0.579093     0.005394
PD2448   PD        0.105062    0.327302    0.579807     0.005394
PD2449   PD        0.104777    0.359661    0.539635     0.005394
AU2450   AU        0.140493    0.326473    0.539133     0.007504
AU2451   AU        0.142846    0.363342    0.578174     0.007504
AU2452   AU        0.176857    0.327382    0.575964     0.007504
AU2453   AU        0.175520    0.360834    0.538172     0.007504
AU2454   AU        0.211912    0.326526    0.537327     0.007504
AU2455   AU        0.212360    0.362776    0.576600     0.007504
AU2456   AU        0.246865    0.325752    0.576671     0.007504
AU2457   AU        0.244758    0.361281    0.537567     0.007504
AU2458   AU        0.284425    0.326890    0.538831     0.007504
AU2459   AU        0.282017    0.360701    0.579229     0.007504
AU2460   AU        0.319973    0.324263    0.578219     0.007504
AU2461   AU        0.317398    0.360914    0.536174     0.007504
AU2462   AU        0.353656    0.326443    0.538932     0.007504
AU2463   AU        0.353747    0.361940    0.577619     0.007504
AU2464   AU        0.391903    0.327054    0.575200     0.007504
AU2465   AU        0.391710    0.363127    0.537311     0.007504
AU2466   AU        0.426562    0.327775    0.538418     0.007504
AU2467   AU        0.426110    0.362055    0.577251     0.007504
AU2468   AU        0.462471    0.326524    0.578728     0.007504
AU2469   AU        0.464611    0.361620    0.538418     0.007504
AU2470   AU        0.500176    0.326482    0.539103     0.007504
AU2471   AU        0.497761    0.362211    0.576425     0.007504
AU2472   AU        0.534958    0.328266    0.577436     0.007504
AU2473   AU        0.536436    0.363190    0.537593     0.007504
AU2474   AU        0.574594    0.324654    0.539091     0.007504
AU2475   AU        0.572611    0.362738    0.577797     0.007504
AU2476   AU        0.609871    0.324715    0.577886     0.007504
AU2477   AU        0.611185    0.362423    0.539691     0.007504
AU2478   AU        0.644709    0.326485    0.535964     0.007504
AU2479   AU        0.645408    0.360282    0.578891     0.007504
AU2480   AU        0.678519    0.325469    0.578722     0.007504
AU2481   AU        0.681874    0.360762    0.539625     0.007504
AU2482   AU        0.713821    0.325200    0.537713     0.007504
AU2483   AU        0.713459    0.363534    0.578545     0.007504
PD2484   PD        0.748269    0.327782    0.577113     0.005394
AU2485   AU        0.747430    0.362200    0.538562     0.007504
PD2486   PD        0.784411    0.325973    0.537390     0.005394
PD2487   PD        0.782296    0.359817    0.576402     0.005394
PD2488   PD        0.818022    0.324832    0.575772     0.005394
PD2489   PD        0.814829    0.361852    0.539825     0.005394
PD2490   PD        0.037044    0.396839    0.576668     0.005394
PD2491   PD        0.039704    0.431877    0.536332     0.005394
PD2492   PD        0.072007    0.396021    0.539601     0.005394
PD2493   PD        0.069933    0.432880    0.578630     0.005394
AU2494   AU        0.106434    0.395959    0.577445     0.007504
AU2495   AU        0.108018    0.433607    0.540203     0.007504
AU2496   AU        0.141642    0.396117    0.538222     0.007504
AU2497   AU        0.140765    0.432067    0.575804     0.007504
AU2498   AU        0.177030    0.396643    0.576691     0.007504
AU2499   AU        0.173087    0.433663    0.537512     0.007504
AU2500   AU        0.209942    0.397335    0.538580     0.007504
AU2501   AU        0.208664    0.432425    0.577381     0.007504
AU2502   AU        0.249142    0.398057    0.577369     0.007504
AU2503   AU        0.245837    0.432735    0.539853     0.007504
AU2504   AU        0.284198    0.398114    0.540686     0.007504
AU2505   AU        0.284781    0.433332    0.576039     0.007504
AU2506   AU        0.318471    0.397558    0.577439     0.007504
AU2507   AU        0.320832    0.433133    0.539383     0.007504
AU2508   AU        0.353997    0.394982    0.538794     0.007504
AU2509   AU        0.353532    0.435671    0.577853     0.007504
AU2510   AU        0.388515    0.396385    0.575054     0.007504
AU2511   AU        0.390962    0.432236    0.540246     0.007504
AU2512   AU        0.428185    0.397034    0.537724     0.007504
AU2513   AU        0.426270    0.434208    0.579393     0.007504
AU2514   AU        0.462292    0.397865    0.577935     0.007504
AU2515   AU        0.462882    0.433365    0.537461     0.007504
AU2516   AU        0.499996    0.399039    0.537468     0.007504
AU2517   AU        0.498140    0.434871    0.577415     0.007504
AU2518   AU        0.534840    0.399369    0.576826     0.007504
AU2519   AU        0.534290    0.433839    0.536588     0.007504
AU2520   AU        0.569654    0.400072    0.540249     0.007504
AU2521   AU        0.570649    0.433732    0.576613     0.007504
AU2522   AU        0.607956    0.397712    0.578267     0.007504
AU2523   AU        0.606171    0.434490    0.539646     0.007504
AU2524   AU        0.645509    0.396230    0.540443     0.007504
AU2525   AU        0.644855    0.434080    0.579714     0.007504
AU2526   AU        0.679143    0.397721    0.579376     0.007504
AU2527   AU        0.680451    0.433730    0.541269     0.007504
AU2528   AU        0.712608    0.396783    0.539704     0.007504
AU2529   AU        0.714616    0.430349    0.577514     0.007504
AU2530   AU        0.749897    0.395141    0.578666     0.007504
AU2531   AU        0.748440    0.431820    0.540279     0.007504
PD2532   PD        0.785257    0.397447    0.535201     0.005394
PD2533   PD        0.782388    0.429299    0.576971     0.005394
PD2534   PD        0.816295    0.396033    0.577634     0.005394
PD2535   PD        0.820312    0.430020    0.541762     0.005394
PD2536   PD        0.000714    0.463620    0.539599     0.005394
PD2537   PD        0.035057    0.474636    0.579250     0.005394
PD2538   PD        0.033988    0.509588    0.539262     0.005394
PD2539   PD        0.070721    0.470664    0.542058     0.005394
PD2540   PD        0.071633    0.504620    0.578279     0.005394
AU2541   AU        0.107715    0.469352    0.578503     0.007504
AU2542   AU        0.106495    0.504765    0.539630     0.007504
AU2543   AU        0.141435    0.469157    0.539852     0.007504
AU2544   AU        0.140309    0.503591    0.576372     0.007504
AU2545   AU        0.177782    0.469621    0.577380     0.007504
AU2546   AU        0.175783    0.505378    0.540144     0.007504
AU2547   AU        0.209909    0.468738    0.539579     0.007504
AU2548   AU        0.210994    0.506415    0.579643     0.007504
AU2549   AU        0.245602    0.470566    0.579516     0.007504
AU2550   AU        0.247583    0.506930    0.540454     0.007504
AU2551   AU        0.283875    0.469974    0.536343     0.007504
AU2552   AU        0.285151    0.504561    0.577527     0.007504
AU2553   AU        0.319994    0.471700    0.577078     0.007504
AU2554   AU        0.318676    0.505666    0.536915     0.007504
AU2555   AU        0.354727    0.471693    0.538590     0.007504
AU2556   AU        0.356514    0.506619    0.575402     0.007504
AU2557   AU        0.391252    0.469393    0.575639     0.007504
AU2558   AU        0.391683    0.505552    0.538428     0.007504
AU2559   AU        0.426556    0.469106    0.538528     0.007504
AU2560   AU        0.425774    0.506679    0.576212     0.007504
AU2561   AU        0.463511    0.471117    0.577876     0.007504
AU2562   AU        0.462109    0.505308    0.540278     0.007504
AU2563   AU        0.499227    0.468664    0.538836     0.007504
AU2564   AU        0.498095    0.505208    0.578527     0.007504
AU2565   AU        0.535026    0.469824    0.577178     0.007504
AU2566   AU        0.534580    0.505747    0.537737     0.007504
AU2567   AU        0.571816    0.469674    0.540125     0.007504
AU2568   AU        0.572251    0.505101    0.578387     0.007504
AU2569   AU        0.608078    0.467708    0.580590     0.007504
AU2570   AU        0.609115    0.504542    0.538087     0.007504
AU2571   AU        0.643792    0.469083    0.538473     0.007504
AU2572   AU        0.644156    0.504182    0.577002     0.007504
AU2573   AU        0.681802    0.468002    0.579549     0.007504
AU2574   AU        0.680954    0.502284    0.540697     0.007504
AU2575   AU        0.715537    0.468346    0.535801     0.007504
AU2576   AU        0.715269    0.504633    0.580789     0.007504
AU2577   AU        0.746550    0.468669    0.577740     0.007504
PD2578   PD        0.748488    0.502662    0.541494     0.005394
PD2579   PD        0.785112    0.464381    0.535872     0.005394
PD2580   PD        0.784874    0.506799    0.581846     0.005394
PD2581   PD        0.818815    0.466867    0.579697     0.005394
PD2582   PD        0.817751    0.502411    0.540352     0.005394
PD2583   PD        0.852178    0.465171    0.539444     0.005394
PD2584   PD        0.039852    0.540618    0.579008     0.005394
PD2585   PD        0.040214    0.580008    0.536949     0.005394
PD2586   PD        0.071516    0.541347    0.538242     0.005394
PD2587   PD        0.068008    0.577128    0.577917     0.005394
PD2588   PD        0.105054    0.543484    0.576801     0.005394
PD2589   PD        0.105224    0.577295    0.538484     0.005394
AU2590   AU        0.139908    0.542351    0.538140     0.007504
AU2591   AU        0.141079    0.577409    0.578083     0.007504
AU2592   AU        0.174790    0.543618    0.579073     0.007504
AU2593   AU        0.176822    0.576870    0.538984     0.007504
AU2594   AU        0.209378    0.542406    0.541662     0.007504
AU2595   AU        0.210943    0.579095    0.577444     0.007504
AU2596   AU        0.247717    0.540891    0.578933     0.007504
AU2597   AU        0.245381    0.576465    0.536593     0.007504
AU2598   AU        0.284264    0.542872    0.540633     0.007504
AU2599   AU        0.282922    0.580670    0.578941     0.007504
AU2600   AU        0.320159    0.541066    0.579298     0.007504
AU2601   AU        0.318863    0.577931    0.537215     0.007504
AU2602   AU        0.355082    0.540565    0.538123     0.007504
AU2603   AU        0.354990    0.578076    0.577986     0.007504
AU2604   AU        0.389054    0.541394    0.576620     0.007504
AU2605   AU        0.390969    0.577220    0.539134     0.007504
AU2606   AU        0.425405    0.541414    0.539693     0.007504
AU2607   AU        0.426756    0.576430    0.578641     0.007504
AU2608   AU        0.464217    0.541039    0.576990     0.007504
AU2609   AU        0.462427    0.576567    0.535722     0.007504
AU2610   AU        0.500544    0.543968    0.539210     0.007504
AU2611   AU        0.497271    0.577402    0.579669     0.007504
AU2612   AU        0.533936    0.541099    0.579447     0.007504
AU2613   AU        0.535824    0.575610    0.536989     0.007504
AU2614   AU        0.570758    0.540619    0.540109     0.007504
AU2615   AU        0.569864    0.575682    0.573715     0.007504
AU2616   AU        0.609801    0.539951    0.576436     0.007504
AU2617   AU        0.607310    0.575200    0.541312     0.007504
AU2618   AU        0.645902    0.538062    0.540267     0.007504
AU2619   AU        0.641368    0.577282    0.580190     0.007504
AU2620   AU        0.678597    0.539889    0.581751     0.007504
AU2621   AU        0.678718    0.577924    0.542751     0.007504
PD2622   PD        0.712750    0.541443    0.544929     0.005394
AU2623   AU        0.714689    0.576213    0.580601     0.007504
PD2624   PD        0.747190    0.540518    0.578530     0.005394
PD2625   PD        0.748204    0.583166    0.543762     0.005394
PD2626   PD        0.787431    0.540440    0.538751     0.005394
PD2627   PD        0.782388    0.579488    0.580346     0.005394
PD2628   PD        0.817972    0.539755    0.583035     0.005394
PD2629   PD        0.816356    0.579887    0.543139     0.005394
PD2630   PD        0.037100    0.613818    0.576563     0.005394
PD2631   PD        0.015807    0.647389    0.470411     0.005394
PD2632   PD        0.072007    0.614273    0.535381     0.005394
PD2633   PD        0.075446    0.649245    0.575850     0.005394
PD2634   PD        0.109711    0.615599    0.577738     0.005394
PD2635   PD        0.108017    0.647828    0.536132     0.005394
AU2636   AU        0.141346    0.612365    0.537201     0.007504
PD2637   PD        0.142454    0.652968    0.574801     0.005394
AU2638   AU        0.177010    0.613541    0.576704     0.007504
AU2639   AU        0.175252    0.649857    0.536722     0.007504
AU2640   AU        0.211357    0.615802    0.538604     0.007504
AU2641   AU        0.208976    0.649528    0.574199     0.007504
AU2642   AU        0.246259    0.612187    0.578419     0.007504
AU2643   AU        0.244742    0.650150    0.533982     0.007504
AU2644   AU        0.281686    0.614376    0.538905     0.007504
AU2645   AU        0.282692    0.649631    0.578831     0.007504
AU2646   AU        0.321116    0.614134    0.579077     0.007504
AU2647   AU        0.319932    0.652615    0.537285     0.007504
AU2648   AU        0.353489    0.611868    0.538265     0.007504
AU2649   AU        0.355483    0.650373    0.576824     0.007504
AU2650   AU        0.390877    0.613756    0.577690     0.007504
AU2651   AU        0.389762    0.649330    0.538699     0.007504
AU2652   AU        0.427092    0.612842    0.540685     0.007504
AU2653   AU        0.427453    0.650351    0.580086     0.007504
AU2654   AU        0.463935    0.612208    0.576563     0.007504
AU2655   AU        0.462642    0.648858    0.539525     0.007504
AU2656   AU        0.498209    0.611746    0.540167     0.007504
AU2657   AU        0.498687    0.648493    0.579882     0.007504
AU2658   AU        0.533285    0.612540    0.579803     0.007504
AU2659   AU        0.535087    0.648829    0.539080     0.007504
AU2660   AU        0.570347    0.614141    0.538391     0.007504
AU2661   AU        0.570004    0.649817    0.577801     0.007504
AU2662   AU        0.606152    0.613229    0.580275     0.007504
AU2663   AU        0.606605    0.647642    0.538443     0.007504
AU2664   AU        0.641458    0.612975    0.539522     0.007504
AU2665   AU        0.643017    0.647153    0.576827     0.007504
AU2666   AU        0.677436    0.611394    0.579595     0.007504
AU2667   AU        0.677356    0.648279    0.540003     0.007504
AU2668   AU        0.710901    0.613989    0.540773     0.007504
AU2669   AU        0.709589    0.648654    0.577242     0.007504
PD2670   PD        0.745726    0.616899    0.579459     0.005394
PD2671   PD        0.747420    0.649875    0.539657     0.005394
PD2672   PD        0.782357    0.617005    0.542796     0.005394
PD2673   PD        0.781648    0.649282    0.578672     0.005394
PD2674   PD        0.820966    0.611340    0.581468     0.005394
PD2675   PD        0.816797    0.651189    0.542076     0.005394
PD2676   PD        0.072821    0.682368    0.537840     0.005394
PD2677   PD        0.106211    0.684748    0.574539     0.005394
PD2678   PD        0.101504    0.719948    0.537031     0.005394
PD2679   PD        0.138820    0.686920    0.534542     0.005394
PD2680   PD        0.144110    0.720768    0.575579     0.005394
PD2681   PD        0.175604    0.687124    0.573608     0.005394
PD2682   PD        0.176128    0.720471    0.531905     0.005394
AU2683   AU        0.209932    0.683926    0.536092     0.007504
PD2684   PD        0.209363    0.722322    0.570027     0.005394
PD2685   PD        0.247190    0.686362    0.569839     0.005394
AU2686   AU        0.245049    0.720471    0.532297     0.007504
AU2687   AU        0.282142    0.684046    0.534193     0.007504
PD2688   PD        0.282696    0.719039    0.584578     0.005394
AU2689   AU        0.320473    0.685603    0.579714     0.007504
AU2690   AU        0.319565    0.720630    0.536828     0.007504
AU2691   AU        0.356931    0.688014    0.538602     0.007504
AU2692   AU        0.356696    0.718034    0.577908     0.007504
AU2693   AU        0.392436    0.681746    0.578781     0.007504
AU2694   AU        0.393842    0.722860    0.537058     0.007504
AU2695   AU        0.426745    0.685170    0.538185     0.007504
AU2696   AU        0.426740    0.718399    0.578939     0.007504
AU2697   AU        0.463173    0.684690    0.578401     0.007504
AU2698   AU        0.460392    0.720388    0.539784     0.007504
AU2699   AU        0.500107    0.686433    0.539537     0.007504
AU2700   AU        0.497948    0.722155    0.578959     0.007504
AU2701   AU        0.533691    0.685716    0.577293     0.007504
AU2702   AU        0.534206    0.720799    0.539930     0.007504
AU2703   AU        0.570877    0.683826    0.539664     0.007504
AU2704   AU        0.570504    0.717458    0.578111     0.007504
AU2705   AU        0.606345    0.684223    0.577432     0.007504
AU2706   AU        0.607078    0.717680    0.539636     0.007504
AU2707   AU        0.641699    0.682496    0.538444     0.007504
AU2708   AU        0.641089    0.717035    0.576050     0.007504
AU2709   AU        0.675987    0.682189    0.577759     0.007504
PD2710   PD        0.675053    0.717636    0.536527     0.005394
PD2711   PD        0.712442    0.682238    0.541040     0.005394
PD2712   PD        0.706733    0.718071    0.575093     0.005394
PD2713   PD        0.747315    0.683775    0.578434     0.005394
PD2714   PD        0.745523    0.717836    0.538065     0.005394
PD2715   PD        0.780413    0.683920    0.540022     0.005394
PD2716   PD        0.138712    0.757543    0.530291     0.005394
PD2717   PD        0.172171    0.759300    0.566972     0.005394
PD2718   PD        0.175939    0.791772    0.537491     0.005394
PD2719   PD        0.207566    0.755060    0.533384     0.005394
PD2720   PD        0.208487    0.789662    0.578881     0.005394
PD2721   PD        0.247889    0.758802    0.576810     0.005394
PD2722   PD        0.247268    0.791378    0.536921     0.005394
PD2723   PD        0.280398    0.755171    0.532293     0.005394
PD2724   PD        0.282639    0.792683    0.573661     0.005394
PD2725   PD        0.324408    0.754222    0.582657     0.005394
PD2726   PD        0.319206    0.791561    0.534432     0.005394
AU2727   AU        0.358405    0.755055    0.540995     0.007504
PD2728   PD        0.358034    0.789446    0.578376     0.005394
AU2729   AU        0.392160    0.753556    0.577141     0.007504
AU2730   AU        0.391944    0.788799    0.536079     0.007504
AU2731   AU        0.427346    0.757895    0.538725     0.007504
PD2732   PD        0.425715    0.789704    0.579569     0.005394
AU2733   AU        0.461886    0.755335    0.577312     0.007504
AU2734   AU        0.461791    0.791560    0.538757     0.007504
AU2735   AU        0.497918    0.753922    0.539853     0.007504
PD2736   PD        0.500115    0.787897    0.575946     0.005394
AU2737   AU        0.536143    0.754073    0.576878     0.007504
PD2738   PD        0.533391    0.790148    0.538056     0.005394
AU2739   AU        0.571767    0.753463    0.538066     0.007504
PD2740   PD        0.573922    0.793549    0.576928     0.005394
PD2741   PD        0.605254    0.751051    0.578524     0.005394
PD2742   PD        0.607604    0.790391    0.538911     0.005394
PD2743   PD        0.642299    0.751527    0.538919     0.005394
PD2744   PD        0.637821    0.790410    0.577742     0.005394
PD2745   PD        0.673992    0.752912    0.578420     0.005394
PD2746   PD        0.675814    0.788058    0.539849     0.005394
PD2747   PD        0.712244    0.754568    0.538168     0.005394
PD2748   PD        0.213016    0.823297    0.540741     0.005394
PD2749   PD        0.245959    0.824300    0.573592     0.005394
PD2750   PD        0.247389    0.857729    0.536638     0.005394
PD2751   PD        0.282706    0.825407    0.536143     0.005394
PD2752   PD        0.284026    0.856782    0.576548     0.005394
PD2753   PD        0.320977    0.826918    0.577425     0.005394
PD2754   PD        0.320300    0.859528    0.539538     0.005394
PD2755   PD        0.358462    0.829571    0.538442     0.005394
PD2756   PD        0.354260    0.860924    0.583868     0.005394
PD2757   PD        0.391778    0.827219    0.579908     0.005394
PD2758   PD        0.392632    0.862664    0.541401     0.005394
PD2759   PD        0.424711    0.824763    0.539079     0.005394
PD2760   PD        0.425785    0.861122    0.576688     0.005394
PD2761   PD        0.462877    0.824855    0.577193     0.005394
PD2762   PD        0.462060    0.858553    0.539380     0.005394
PD2763   PD        0.498657    0.824879    0.539465     0.005394
PD2764   PD        0.499872    0.858265    0.579439     0.005394
PD2765   PD        0.536564    0.826995    0.576537     0.005394
PD2766   PD        0.534360    0.857161    0.540219     0.005394
PD2767   PD        0.571867    0.826837    0.537300     0.005394
PD2768   PD        0.570660    0.861019    0.576381     0.005394
PD2769   PD        0.605616    0.827967    0.578472     0.005394
PD2770   PD        0.607818    0.858022    0.540731     0.005394
PD2771   PD        0.644606    0.827813    0.539261     0.005394
PD2772   PD        0.428665    0.894138    0.535924     0.005394
PD2773   PD        0.322506    0.084068    0.612099     0.005394
PD2774   PD        0.355013    0.083511    0.655774     0.005394
PD2775   PD        0.395560    0.081886    0.616292     0.005394
PD2776   PD        0.426981    0.081906    0.656073     0.005394
PD2777   PD        0.465983    0.083977    0.612405     0.005394
PD2778   PD        0.499813    0.085357    0.649078     0.005394
PD2779   PD        0.534256    0.081432    0.615569     0.005394
PD2780   PD        0.176794    0.150353    0.623712     0.005394
PD2781   PD        0.212963    0.149750    0.655138     0.005394
PD2782   PD        0.248940    0.116199    0.652642     0.005394
PD2783   PD        0.249136    0.147424    0.615816     0.005394
PD2784   PD        0.284198    0.113155    0.614144     0.005394
PD2785   PD        0.284233    0.148435    0.655934     0.005394
PD2786   PD        0.321392    0.116434    0.651557     0.005394
PD2787   PD        0.321112    0.149905    0.612838     0.005394
PD2788   PD        0.358597    0.116815    0.616912     0.005394
PD2789   PD        0.356510    0.152616    0.654388     0.005394
PD2790   PD        0.393538    0.118328    0.654988     0.005394
PD2791   PD        0.393334    0.149788    0.615451     0.005394
PD2792   PD        0.429032    0.114784    0.616684     0.005394
PD2793   PD        0.428276    0.150669    0.655442     0.005394
PD2794   PD        0.466305    0.117256    0.652801     0.005394
AU2795   AU        0.465732    0.149673    0.615960     0.007504
PD2796   PD        0.502000    0.118914    0.614909     0.005394
AU2797   AU        0.500387    0.151463    0.655628     0.007504
PD2798   PD        0.534148    0.118720    0.651978     0.005394
PD2799   PD        0.534418    0.152046    0.614758     0.005394
PD2800   PD        0.570020    0.117892    0.619260     0.005394
PD2801   PD        0.572325    0.152528    0.655339     0.005394
PD2802   PD        0.605230    0.115432    0.653510     0.005394
PD2803   PD        0.607163    0.149628    0.618391     0.005394
PD2804   PD        0.640540    0.146894    0.654354     0.005394
PD2805   PD        0.716397    0.151766    0.576296     0.005394
PD2806   PD        0.106971    0.217917    0.619076     0.005394
PD2807   PD        0.142695    0.185004    0.618413     0.005394
PD2808   PD        0.140205    0.221223    0.652803     0.005394
PD2809   PD        0.178954    0.187165    0.657145     0.005394
PD2810   PD        0.177551    0.221618    0.621248     0.005394
PD2811   PD        0.212052    0.182570    0.615686     0.005394
PD2812   PD        0.214616    0.221156    0.656744     0.005394
PD2813   PD        0.248871    0.183639    0.654518     0.005394
AU2814   AU        0.248232    0.219938    0.616196     0.007504
PD2815   PD        0.284524    0.182366    0.616579     0.005394
PD2816   PD        0.281929    0.221219    0.654002     0.005394
PD2817   PD        0.318310    0.182727    0.652514     0.005394
AU2818   AU        0.320234    0.218106    0.617334     0.007504
AU2819   AU        0.354664    0.183272    0.615318     0.007504
AU2820   AU        0.358237    0.220888    0.654952     0.007504
PD2821   PD        0.395115    0.183893    0.651788     0.005394
AU2822   AU        0.392526    0.217593    0.613840     0.007504
AU2823   AU        0.430908    0.185027    0.615828     0.007504
AU2824   AU        0.428947    0.219911    0.654983     0.007504
AU2825   AU        0.464688    0.184794    0.654984     0.007504
AU2826   AU        0.464248    0.218310    0.614779     0.007504
AU2827   AU        0.499831    0.184390    0.614642     0.007504
AU2828   AU        0.499340    0.218819    0.654545     0.007504
AU2829   AU        0.535723    0.185702    0.654834     0.007504
AU2830   AU        0.535671    0.219583    0.615207     0.007504
AU2831   AU        0.571460    0.185529    0.617421     0.007504
AU2832   AU        0.570349    0.220145    0.654125     0.007504
PD2833   PD        0.608034    0.186573    0.654256     0.005394
AU2834   AU        0.607228    0.220213    0.616310     0.007504
PD2835   PD        0.642453    0.185264    0.617249     0.005394
PD2836   PD        0.642727    0.220820    0.654875     0.005394
PD2837   PD        0.676212    0.185656    0.653430     0.005394
PD2838   PD        0.679164    0.218596    0.613051     0.005394
PD2839   PD        0.715645    0.183325    0.614560     0.005394
PD2840   PD        0.715167    0.222205    0.652366     0.005394
PD2841   PD        0.750648    0.217636    0.619636     0.005394
PD2842   PD        0.073487    0.289020    0.654789     0.005394
PD2843   PD        0.106714    0.254901    0.655487     0.005394
PD2844   PD        0.103429    0.292052    0.617799     0.005394
PD2845   PD        0.140510    0.250688    0.614354     0.005394
PD2846   PD        0.139228    0.289306    0.654015     0.005394
PD2847   PD        0.176348    0.253348    0.657560     0.005394
PD2848   PD        0.177510    0.290782    0.618289     0.005394
AU2849   AU        0.214171    0.253717    0.618859     0.007504
PD2850   PD        0.214912    0.290182    0.656244     0.005394
AU2851   AU        0.249199    0.255602    0.655982     0.007504
AU2852   AU        0.248292    0.289756    0.616627     0.007504
AU2853   AU        0.283158    0.255134    0.614090     0.007504
AU2854   AU        0.284104    0.288965    0.652839     0.007504
AU2855   AU        0.318878    0.253882    0.652888     0.007504
AU2856   AU        0.319420    0.291273    0.617433     0.007504
AU2857   AU        0.355437    0.253187    0.615035     0.007504
AU2858   AU        0.356534    0.289877    0.653697     0.007504
AU2859   AU        0.392781    0.254986    0.655036     0.007504
AU2860   AU        0.390966    0.289914    0.613635     0.007504
AU2861   AU        0.429998    0.252695    0.613636     0.007504
AU2862   AU        0.427799    0.289752    0.656416     0.007504
AU2863   AU        0.464550    0.252545    0.655534     0.007504
AU2864   AU        0.464081    0.289476    0.614556     0.007504
AU2865   AU        0.501417    0.253522    0.616882     0.007504
AU2866   AU        0.498609    0.290254    0.655911     0.007504
AU2867   AU        0.535831    0.254769    0.652215     0.007504
AU2868   AU        0.536715    0.291141    0.615407     0.007504
AU2869   AU        0.570847    0.253494    0.614751     0.007504
AU2870   AU        0.573491    0.291426    0.656184     0.007504
AU2871   AU        0.605255    0.253934    0.653379     0.007504
AU2872   AU        0.607281    0.288867    0.617157     0.007504
AU2873   AU        0.644513    0.254889    0.615665     0.007504
AU2874   AU        0.640886    0.289924    0.655042     0.007504
PD2875   PD        0.677887    0.256727    0.655988     0.005394
AU2876   AU        0.675840    0.290252    0.618352     0.007504
PD2877   PD        0.714860    0.253544    0.614335     0.005394
PD2878   PD        0.712287    0.290285    0.655583     0.005394
PD2879   PD        0.749799    0.258102    0.654204     0.005394
PD2880   PD        0.750631    0.292690    0.615309     0.005394
PD2881   PD        0.783593    0.292541    0.650819     0.005394
PD2882   PD        0.038777    0.361325    0.614025     0.005394
PD2883   PD        0.069688    0.328352    0.616305     0.005394
PD2884   PD        0.071123    0.360994    0.653383     0.005394
PD2885   PD        0.106649    0.325795    0.652667     0.005394
PD2886   PD        0.105785    0.362233    0.615644     0.005394
PD2887   PD        0.142749    0.326251    0.617526     0.005394
PD2888   PD        0.142458    0.363158    0.656045     0.005394
PD2889   PD        0.177263    0.323528    0.654803     0.005394
AU2890   AU        0.177204    0.362422    0.613725     0.007504
AU2891   AU        0.211219    0.327212    0.615537     0.007504
AU2892   AU        0.211126    0.361358    0.655561     0.007504
AU2893   AU        0.249175    0.327914    0.655272     0.007504
AU2894   AU        0.246315    0.360419    0.615276     0.007504
AU2895   AU        0.283235    0.326355    0.615035     0.007504
AU2896   AU        0.283971    0.361796    0.655787     0.007504
AU2897   AU        0.319410    0.326466    0.654972     0.007504
AU2898   AU        0.319631    0.360669    0.614795     0.007504
AU2899   AU        0.354076    0.324892    0.613982     0.007504
AU2900   AU        0.354631    0.360432    0.655098     0.007504
AU2901   AU        0.392492    0.324433    0.653792     0.007504
AU2902   AU        0.388171    0.362478    0.616739     0.007504
AU2903   AU        0.425116    0.325395    0.615178     0.007504
AU2904   AU        0.429108    0.361916    0.655214     0.007504
AU2905   AU        0.464000    0.326985    0.655374     0.007504
AU2906   AU        0.465427    0.363766    0.614387     0.007504
AU2907   AU        0.498859    0.328203    0.617108     0.007504
AU2908   AU        0.499215    0.365214    0.654404     0.007504
AU2909   AU        0.535660    0.326553    0.654223     0.007504
AU2910   AU        0.536877    0.364092    0.614377     0.007504
AU2911   AU        0.573343    0.326445    0.613678     0.007504
AU2912   AU        0.573801    0.361000    0.656683     0.007504
AU2913   AU        0.608063    0.326598    0.656237     0.007504
AU2914   AU        0.609809    0.360667    0.614728     0.007504
AU2915   AU        0.642518    0.325509    0.617890     0.007504
AU2916   AU        0.643422    0.360751    0.654083     0.007504
AU2917   AU        0.675812    0.326200    0.656456     0.007504
AU2918   AU        0.677791    0.363046    0.617726     0.007504
PD2919   PD        0.711095    0.326588    0.616075     0.005394
PD2920   PD        0.712966    0.360669    0.652998     0.005394
PD2921   PD        0.748904    0.325519    0.654567     0.005394
PD2922   PD        0.746153    0.359137    0.616875     0.005394
PD2923   PD        0.786675    0.327076    0.615657     0.005394
PD2924   PD        0.789011    0.357646    0.656669     0.005394
PD2925   PD        0.820152    0.360745    0.612820     0.005394
PD2926   PD        0.036155    0.397005    0.651279     0.005394
PD2927   PD        0.035018    0.434712    0.620891     0.005394
PD2928   PD        0.071335    0.398715    0.617426     0.005394
PD2929   PD        0.074153    0.431693    0.655369     0.005394
PD2930   PD        0.104010    0.395171    0.656386     0.005394
PD2931   PD        0.106580    0.431829    0.615552     0.005394
AU2932   AU        0.142539    0.398810    0.616590     0.007504
PD2933   PD        0.139920    0.435103    0.655703     0.005394
AU2934   AU        0.176619    0.399353    0.655371     0.007504
AU2935   AU        0.174001    0.434372    0.615866     0.007504
AU2936   AU        0.212614    0.396825    0.615468     0.007504
AU2937   AU        0.211164    0.431916    0.655006     0.007504
AU2938   AU        0.247054    0.398144    0.655722     0.007504
AU2939   AU        0.247934    0.432864    0.616791     0.007504
AU2940   AU        0.282997    0.396907    0.615162     0.007504
AU2941   AU        0.283160    0.433887    0.652020     0.007504
AU2942   AU        0.318354    0.396508    0.653373     0.007504
AU2943   AU        0.318350    0.434391    0.615357     0.007504
AU2944   AU        0.354944    0.398154    0.616185     0.007504
AU2945   AU        0.356105    0.434362    0.652438     0.007504
AU2946   AU        0.391075    0.400805    0.655369     0.007504
AU2947   AU        0.388597    0.435391    0.614886     0.007504
AU2948   AU        0.424450    0.397601    0.615661     0.007504
AU2949   AU        0.427323    0.434964    0.653437     0.007504
AU2950   AU        0.462334    0.399906    0.655696     0.007504
AU2951   AU        0.462221    0.435914    0.617523     0.007504
AU2952   AU        0.499512    0.399810    0.616015     0.007504
AU2953   AU        0.498085    0.433890    0.657317     0.007504
AU2954   AU        0.536976    0.397389    0.654995     0.007504
AU2955   AU        0.536367    0.434187    0.616285     0.007504
AU2956   AU        0.573036    0.397668    0.615846     0.007504
AU2957   AU        0.572396    0.433993    0.655611     0.007504
AU2958   AU        0.605316    0.397936    0.653896     0.007504
AU2959   AU        0.607887    0.432763    0.617632     0.007504
AU2960   AU        0.642499    0.398038    0.615668     0.007504
AU2961   AU        0.643884    0.432951    0.654783     0.007504
AU2962   AU        0.677356    0.395843    0.654318     0.007504
AU2963   AU        0.679839    0.432720    0.615619     0.007504
AU2964   AU        0.714258    0.396314    0.616565     0.007504
AU2965   AU        0.712752    0.430775    0.658122     0.007504
PD2966   PD        0.749284    0.396871    0.659244     0.005394
PD2967   PD        0.745900    0.430568    0.618359     0.005394
PD2968   PD        0.784623    0.394520    0.618644     0.005394
PD2969   PD        0.782302    0.430079    0.652278     0.005394
PD2970   PD        0.820241    0.394247    0.655137     0.005394
PD2971   PD        0.816321    0.433586    0.617011     0.005394
PD2972   PD        0.043057    0.472057    0.653321     0.005394
PD2973   PD        0.037487    0.506197    0.615870     0.005394
PD2974   PD        0.071236    0.467985    0.612433     0.005394
PD2975   PD        0.073175    0.506839    0.652878     0.005394
PD2976   PD        0.107679    0.471133    0.648954     0.005394
PD2977   PD        0.108324    0.505156    0.613488     0.005394
AU2978   AU        0.142577    0.470363    0.615036     0.007504
PD2979   PD        0.140647    0.508137    0.656074     0.005394
AU2980   AU        0.176703    0.469679    0.655796     0.007504
AU2981   AU        0.175664    0.506524    0.615296     0.007504
AU2982   AU        0.210742    0.467621    0.615710     0.007504
AU2983   AU        0.211722    0.505203    0.652999     0.007504
AU2984   AU        0.248301    0.469784    0.655833     0.007504
AU2985   AU        0.247030    0.505028    0.617903     0.007504
AU2986   AU        0.282129    0.470248    0.615531     0.007504
AU2987   AU        0.283702    0.507371    0.657114     0.007504
AU2988   AU        0.317304    0.469042    0.653950     0.007504
AU2989   AU        0.317222    0.505675    0.619090     0.007504
AU2990   AU        0.355241    0.473244    0.614610     0.007504
AU2991   AU        0.356027    0.506292    0.655477     0.007504
AU2992   AU        0.389605    0.471096    0.654530     0.007504
AU2993   AU        0.390875    0.505637    0.616554     0.007504
AU2994   AU        0.426597    0.469307    0.615406     0.007504
AU2995   AU        0.427498    0.503358    0.653408     0.007504
AU2996   AU        0.463993    0.469159    0.656500     0.007504
AU2997   AU        0.461457    0.502952    0.615839     0.007504
AU2998   AU        0.500297    0.469163    0.619119     0.007504
AU2999   AU        0.499779    0.505182    0.656455     0.007504
AU3000   AU        0.534630    0.469339    0.657188     0.007504
AU3001   AU        0.536891    0.505732    0.615473     0.007504
AU3002   AU        0.571207    0.469960    0.616008     0.007504
AU3003   AU        0.571550    0.505104    0.657605     0.007504
AU3004   AU        0.608783    0.469316    0.656007     0.007504
AU3005   AU        0.608031    0.504546    0.616149     0.007504
AU3006   AU        0.644642    0.468755    0.615702     0.007504
AU3007   AU        0.644806    0.504891    0.656588     0.007504
AU3008   AU        0.679104    0.468904    0.655538     0.007504
AU3009   AU        0.678904    0.503591    0.618589     0.007504
AU3010   AU        0.713831    0.467854    0.618345     0.007504
AU3011   AU        0.713263    0.505212    0.653835     0.007504
PD3012   PD        0.748772    0.468689    0.654881     0.005394
PD3013   PD        0.746142    0.504492    0.617790     0.005394
PD3014   PD        0.782321    0.465412    0.615064     0.005394
PD3015   PD        0.784078    0.504435    0.657757     0.005394
PD3016   PD        0.817192    0.428187    0.695441     0.005394
PD3017   PD        0.813145    0.502524    0.616010     0.005394
PD3018   PD        0.035347    0.544561    0.650893     0.005394
PD3019   PD        0.037253    0.576021    0.616396     0.005394
PD3020   PD        0.071559    0.541881    0.617125     0.005394
PD3021   PD        0.068419    0.579939    0.654545     0.005394
PD3022   PD        0.103847    0.543695    0.655728     0.005394
PD3023   PD        0.103157    0.577986    0.614509     0.005394
AU3024   AU        0.142140    0.543776    0.617983     0.007504
PD3025   PD        0.141788    0.577586    0.656781     0.005394
AU3026   AU        0.177528    0.542898    0.655693     0.007504
AU3027   AU        0.176976    0.579750    0.619217     0.007504
AU3028   AU        0.212565    0.542686    0.619026     0.007504
AU3029   AU        0.213021    0.578447    0.657547     0.007504
AU3030   AU        0.247839    0.543404    0.656677     0.007504
AU3031   AU        0.246459    0.578028    0.618027     0.007504
AU3032   AU        0.282370    0.544153    0.614733     0.007504
AU3033   AU        0.282075    0.577606    0.655295     0.007504
AU3034   AU        0.317945    0.542500    0.654560     0.007504
AU3035   AU        0.320284    0.578652    0.616135     0.007504
AU3036   AU        0.354200    0.541402    0.616096     0.007504
AU3037   AU        0.353354    0.577953    0.657301     0.007504
AU3038   AU        0.391418    0.539198    0.655248     0.007504
AU3039   AU        0.390907    0.575928    0.617006     0.007504
AU3040   AU        0.429373    0.542848    0.616997     0.007504
AU3041   AU        0.428224    0.576559    0.656846     0.007504
AU3042   AU        0.462834    0.540685    0.656258     0.007504
AU3043   AU        0.464328    0.577339    0.616561     0.007504
AU3044   AU        0.498842    0.541040    0.616723     0.007504
AU3045   AU        0.497877    0.576120    0.656143     0.007504
AU3046   AU        0.536855    0.540111    0.654642     0.007504
AU3047   AU        0.537072    0.574872    0.615523     0.007504
AU3048   AU        0.573584    0.539307    0.617250     0.007504
AU3049   AU        0.570929    0.577137    0.657719     0.007504
AU3050   AU        0.606287    0.540238    0.657432     0.007504
AU3051   AU        0.607072    0.576007    0.617839     0.007504
AU3052   AU        0.642121    0.540787    0.620401     0.007504
AU3053   AU        0.642504    0.576709    0.656233     0.007504
AU3054   AU        0.680113    0.541530    0.654499     0.007504
AU3055   AU        0.677704    0.576346    0.617839     0.007504
AU3056   AU        0.713688    0.541459    0.617021     0.007504
AU3057   AU        0.713173    0.577568    0.652106     0.007504
PD3058   PD        0.747102    0.540027    0.655554     0.005394
PD3059   PD        0.749485    0.576195    0.617383     0.005394
PD3060   PD        0.785695    0.541619    0.619100     0.005394
PD3061   PD        0.781892    0.575465    0.655931     0.005394
PD3062   PD        0.817967    0.538228    0.656290     0.005394
PD3063   PD        0.818028    0.576140    0.621728     0.005394
PD3064   PD        0.071312    0.612682    0.611637     0.005394
PD3065   PD        0.074478    0.652410    0.663606     0.005394
PD3066   PD        0.102764    0.615497    0.658091     0.005394
PD3067   PD        0.107297    0.646359    0.609889     0.005394
PD3068   PD        0.141232    0.610559    0.617480     0.005394
PD3069   PD        0.139651    0.646885    0.656466     0.005394
AU3070   AU        0.178515    0.614094    0.656693     0.007504
PD3071   PD        0.177533    0.645403    0.617259     0.005394
AU3072   AU        0.211596    0.613652    0.616305     0.007504
AU3073   AU        0.213333    0.646882    0.658330     0.007504
AU3074   AU        0.246368    0.612319    0.657317     0.007504
AU3075   AU        0.248502    0.646379    0.621573     0.007504
AU3076   AU        0.282639    0.611764    0.618390     0.007504
AU3077   AU        0.283181    0.648128    0.658280     0.007504
AU3078   AU        0.320294    0.614136    0.654617     0.007504
AU3079   AU        0.320267    0.649823    0.615456     0.007504
AU3080   AU        0.356839    0.613629    0.617968     0.007504
AU3081   AU        0.354309    0.650856    0.655233     0.007504
AU3082   AU        0.391359    0.613699    0.656923     0.007504
AU3083   AU        0.391710    0.650354    0.618734     0.007504
AU3084   AU        0.427848    0.611756    0.617907     0.007504
AU3085   AU        0.425607    0.649565    0.657488     0.007504
AU3086   AU        0.461958    0.612975    0.657093     0.007504
AU3087   AU        0.460935    0.648137    0.616668     0.007504
AU3088   AU        0.498419    0.612948    0.618870     0.007504
AU3089   AU        0.500316    0.651338    0.655589     0.007504
AU3090   AU        0.534799    0.613874    0.658366     0.007504
AU3091   AU        0.533576    0.650341    0.616654     0.007504
AU3092   AU        0.569976    0.614689    0.618471     0.007504
AU3093   AU        0.570897    0.651009    0.655241     0.007504
AU3094   AU        0.605566    0.611038    0.656520     0.007504
AU3095   AU        0.608386    0.649222    0.615667     0.007504
AU3096   AU        0.642044    0.612282    0.618533     0.007504
AU3097   AU        0.641242    0.648029    0.654509     0.007504
AU3098   AU        0.677165    0.612170    0.654017     0.007504
AU3099   AU        0.675242    0.648566    0.615870     0.007504
AU3100   AU        0.710419    0.612996    0.616086     0.007504
PD3101   PD        0.710837    0.648061    0.653351     0.005394
PD3102   PD        0.750885    0.610947    0.653005     0.005394
PD3103   PD        0.745240    0.647033    0.618667     0.005394
PD3104   PD        0.783977    0.613496    0.616577     0.005394
PD3105   PD        0.821192    0.661487    0.691860     0.005394
PD3106   PD        0.140914    0.685250    0.768008     0.005394
PD3107   PD        0.107575    0.720405    0.618614     0.005394
PD3108   PD        0.143090    0.684487    0.612556     0.005394
PD3109   PD        0.140297    0.715963    0.657596     0.005394
PD3110   PD        0.175216    0.683716    0.655924     0.005394
PD3111   PD        0.176706    0.719943    0.622140     0.005394
PD3112   PD        0.212744    0.681146    0.621665     0.005394
PD3113   PD        0.212368    0.718295    0.656270     0.005394
AU3114   AU        0.249384    0.683215    0.657500     0.007504
PD3115   PD        0.249580    0.719147    0.621717     0.005394
AU3116   AU        0.284347    0.682386    0.619888     0.007504
AU3117   AU        0.285027    0.719290    0.657425     0.007504
AU3118   AU        0.318715    0.683464    0.659136     0.007504
AU3119   AU        0.319290    0.720547    0.618680     0.007504
AU3120   AU        0.353820    0.685789    0.618685     0.007504
AU3121   AU        0.355871    0.719612    0.657340     0.007504
AU3122   AU        0.392181    0.685399    0.658257     0.007504
AU3123   AU        0.392914    0.719529    0.616596     0.007504
AU3124   AU        0.427376    0.683779    0.618253     0.007504
AU3125   AU        0.427875    0.718976    0.656462     0.007504
AU3126   AU        0.463101    0.685207    0.657985     0.007504
AU3127   AU        0.463347    0.719353    0.617031     0.007504
AU3128   AU        0.498665    0.686832    0.617389     0.007504
AU3129   AU        0.498344    0.717929    0.657826     0.007504
AU3130   AU        0.534513    0.685313    0.656880     0.007504
AU3131   AU        0.537079    0.718375    0.616581     0.007504
AU3132   AU        0.570846    0.683483    0.615781     0.007504
AU3133   AU        0.569313    0.718997    0.655247     0.007504
AU3134   AU        0.604469    0.684538    0.655471     0.007504
AU3135   AU        0.605714    0.717396    0.615992     0.007504
AU3136   AU        0.642807    0.684548    0.616400     0.007504
PD3137   PD        0.639287    0.720431    0.654396     0.005394
PD3138   PD        0.673620    0.682546    0.655428     0.005394
PD3139   PD        0.674547    0.719220    0.615045     0.005394
PD3140   PD        0.710620    0.685363    0.614764     0.005394
PD3141   PD        0.712334    0.719672    0.656590     0.005394
PD3142   PD        0.748336    0.684796    0.650426     0.005394
PD3143   PD        0.744236    0.719839    0.611125     0.005394
PD3144   PD        0.142880    0.753168    0.620156     0.005394
PD3145   PD        0.179388    0.755546    0.654983     0.005394
PD3146   PD        0.177713    0.794125    0.619899     0.005394
PD3147   PD        0.213248    0.759654    0.619296     0.005394
PD3148   PD        0.212164    0.791550    0.655850     0.005394
PD3149   PD        0.247252    0.754949    0.655848     0.005394
PD3150   PD        0.250605    0.791750    0.615433     0.005394
PD3151   PD        0.283985    0.755457    0.620639     0.005394
PD3152   PD        0.283708    0.791188    0.656238     0.005394
PD3153   PD        0.322581    0.756310    0.654947     0.005394
PD3154   PD        0.318695    0.791093    0.618359     0.005394
AU3155   AU        0.358829    0.755465    0.616139     0.007504
PD3156   PD        0.356548    0.791298    0.653434     0.005394
PD3157   PD        0.393063    0.752190    0.655838     0.005394
PD3158   PD        0.390285    0.790897    0.616733     0.005394
AU3159   AU        0.426475    0.757097    0.617877     0.007504
PD3160   PD        0.426056    0.792475    0.655556     0.005394
PD3161   PD        0.463226    0.753002    0.654133     0.005394
PD3162   PD        0.465373    0.788207    0.612704     0.005394
AU3163   AU        0.499932    0.754306    0.616255     0.007504
PD3164   PD        0.499716    0.789588    0.654143     0.005394
PD3165   PD        0.535106    0.753582    0.653377     0.005394
PD3166   PD        0.535280    0.789525    0.616190     0.005394
PD3167   PD        0.572944    0.752807    0.618547     0.005394
PD3168   PD        0.571361    0.786751    0.655975     0.005394
PD3169   PD        0.606448    0.754608    0.653735     0.005394
PD3170   PD        0.605778    0.789860    0.616990     0.005394
PD3171   PD        0.638986    0.752281    0.614289     0.005394
PD3172   PD        0.643501    0.789158    0.655621     0.005394
PD3173   PD        0.676802    0.752596    0.654802     0.005394
PD3174   PD        0.641837    0.829757    0.615751     0.005394
PD3175   PD        0.710158    0.752954    0.619412     0.005394
PD3176   PD        0.248137    0.824755    0.651231     0.005394
PD3177   PD        0.286615    0.825570    0.617494     0.005394
PD3178   PD        0.320690    0.826497    0.655239     0.005394
PD3179   PD        0.320142    0.859239    0.619140     0.005394
PD3180   PD        0.357463    0.826679    0.617420     0.005394
PD3181   PD        0.355313    0.860494    0.656148     0.005394
PD3182   PD        0.391272    0.826300    0.654090     0.005394
PD3183   PD        0.394422    0.861472    0.616073     0.005394
PD3184   PD        0.428369    0.824767    0.615297     0.005394
PD3185   PD        0.427404    0.856463    0.656119     0.005394
PD3186   PD        0.464085    0.828150    0.657012     0.005394
PD3187   PD        0.462305    0.860184    0.616325     0.005394
PD3188   PD        0.497282    0.826111    0.616417     0.005394
PD3189   PD        0.500426    0.861393    0.650844     0.005394
PD3190   PD        0.533874    0.825293    0.653095     0.005394
PD3191   PD        0.536567    0.858859    0.618246     0.005394
PD3192   PD        0.568227    0.824621    0.617018     0.005394
PD3193   PD        0.604584    0.822768    0.653855     0.005394
PD3194   PD        0.248158    0.150335    0.693564     0.005394
PD3195   PD        0.286346    0.148758    0.732983     0.005394
PD3196   PD        0.320042    0.150031    0.693878     0.005394
PD3197   PD        0.357726    0.118901    0.692364     0.005394
PD3198   PD        0.355391    0.149242    0.729836     0.005394
PD3199   PD        0.391450    0.116638    0.730463     0.005394
PD3200   PD        0.393303    0.151386    0.692805     0.005394
PD3201   PD        0.426902    0.116471    0.693804     0.005394
PD3202   PD        0.426970    0.152697    0.729585     0.005394
PD3203   PD        0.466588    0.117673    0.728615     0.005394
PD3204   PD        0.465453    0.150819    0.692142     0.005394
PD3205   PD        0.500228    0.118378    0.692410     0.005394
PD3206   PD        0.501226    0.152146    0.730311     0.005394
PD3207   PD        0.536981    0.150404    0.690457     0.005394
PD3208   PD        0.577123    0.147869    0.729252     0.005394
PD3209   PD        0.610386    0.148277    0.695958     0.005394
PD3210   PD        0.179333    0.219758    0.693555     0.005394
PD3211   PD        0.214970    0.185629    0.694058     0.005394
PD3212   PD        0.214368    0.216368    0.735572     0.005394
PD3213   PD        0.249584    0.183874    0.731733     0.005394
PD3214   PD        0.248234    0.221773    0.694897     0.005394
PD3215   PD        0.282493    0.182251    0.695135     0.005394
PD3216   PD        0.283021    0.218848    0.733731     0.005394
PD3217   PD        0.319945    0.185858    0.731437     0.005394
PD3218   PD        0.322869    0.217917    0.690303     0.005394
PD3219   PD        0.356894    0.184093    0.692634     0.005394
PD3220   PD        0.357370    0.221762    0.732167     0.005394
PD3221   PD        0.392630    0.185689    0.731044     0.005394
AU3222   AU        0.394323    0.219563    0.693924     0.007504
AU3223   AU        0.429889    0.186967    0.692949     0.007504
AU3224   AU        0.428171    0.218963    0.732383     0.007504
PD3225   PD        0.465341    0.186684    0.731797     0.005394
AU3226   AU        0.464607    0.219755    0.694802     0.007504
AU3227   AU        0.499128    0.185884    0.693005     0.007504
AU3228   AU        0.500974    0.218925    0.731125     0.007504
PD3229   PD        0.536244    0.186758    0.729941     0.005394
AU3230   AU        0.535444    0.219192    0.692399     0.007504
PD3231   PD        0.569986    0.186477    0.691828     0.005394
PD3232   PD        0.568784    0.219505    0.731994     0.005394
PD3233   PD        0.607269    0.183428    0.732482     0.005394
PD3234   PD        0.605975    0.220132    0.692474     0.005394
PD3235   PD        0.639092    0.184602    0.692300     0.005394
PD3236   PD        0.643724    0.217668    0.728935     0.005394
PD3237   PD        0.675410    0.221265    0.691527     0.005394
PD3238   PD        0.107456    0.290299    0.692095     0.005394
PD3239   PD        0.140579    0.253813    0.693848     0.005394
PD3240   PD        0.143697    0.289898    0.731622     0.005394
PD3241   PD        0.176501    0.251675    0.730868     0.005394
PD3242   PD        0.177428    0.290193    0.695744     0.005394
PD3243   PD        0.211329    0.258336    0.694945     0.005394
PD3244   PD        0.212828    0.290628    0.733043     0.005394
PD3245   PD        0.250420    0.254538    0.731191     0.005394
PD3246   PD        0.247190    0.292120    0.694545     0.005394
PD3247   PD        0.283968    0.259097    0.692602     0.005394
PD3248   PD        0.282631    0.292323    0.731428     0.005394
PD3249   PD        0.321222    0.251499    0.730872     0.005394
AU3250   AU        0.321378    0.289694    0.692346     0.007504
AU3251   AU        0.358740    0.255701    0.694179     0.007504
AU3252   AU        0.356814    0.289730    0.733780     0.007504
AU3253   AU        0.395404    0.254806    0.729965     0.007504
AU3254   AU        0.392445    0.289578    0.695492     0.007504
AU3255   AU        0.430039    0.254252    0.691397     0.007504
AU3256   AU        0.428163    0.290966    0.732499     0.007504
AU3257   AU        0.462298    0.254417    0.731909     0.007504
AU3258   AU        0.462973    0.289483    0.695361     0.007504
AU3259   AU        0.500287    0.254217    0.694202     0.007504
AU3260   AU        0.500958    0.291416    0.732619     0.007504
AU3261   AU        0.534968    0.254510    0.731584     0.007504
AU3262   AU        0.535255    0.290370    0.691865     0.007504
AU3263   AU        0.566644    0.255257    0.691805     0.007504
AU3264   AU        0.570296    0.290198    0.732008     0.007504
PD3265   PD        0.605767    0.255701    0.731180     0.005394
AU3266   AU        0.608029    0.289295    0.694292     0.007504
PD3267   PD        0.642486    0.255623    0.696327     0.005394
PD3268   PD        0.641670    0.291189    0.730672     0.005394
PD3269   PD        0.676159    0.252797    0.729878     0.005394
PD3270   PD        0.678589    0.289734    0.696394     0.005394
PD3271   PD        0.713216    0.253573    0.690771     0.005394
PD3272   PD        0.715780    0.290171    0.730560     0.005394
PD3273   PD        0.750205    0.289756    0.691574     0.005394
PD3274   PD        0.074000    0.363462    0.733454     0.005394
PD3275   PD        0.104169    0.357421    0.690734     0.005394
PD3276   PD        0.143196    0.327573    0.691940     0.005394
PD3277   PD        0.138965    0.364852    0.729628     0.005394
PD3278   PD        0.178330    0.326480    0.729142     0.005394
AU3279   AU        0.178098    0.361759    0.693812     0.007504
AU3280   AU        0.213141    0.327234    0.694381     0.007504
AU3281   AU        0.213665    0.362264    0.732185     0.007504
AU3282   AU        0.247164    0.328447    0.732857     0.007504
AU3283   AU        0.247028    0.361759    0.694498     0.007504
AU3284   AU        0.283272    0.327865    0.693066     0.007504
AU3285   AU        0.283589    0.363067    0.731513     0.007504
AU3286   AU        0.321472    0.326850    0.731173     0.007504
AU3287   AU        0.321341    0.361631    0.694172     0.007504
AU3288   AU        0.357536    0.326093    0.693666     0.007504
AU3289   AU        0.354778    0.362050    0.734195     0.007504
AU3290   AU        0.390195    0.326042    0.734118     0.007504
AU3291   AU        0.391970    0.362532    0.696813     0.007504
AU3292   AU        0.425407    0.327046    0.694829     0.007504
AU3293   AU        0.429307    0.362657    0.734975     0.007504
AU3294   AU        0.464542    0.327508    0.732606     0.007504
AU3295   AU        0.463886    0.362467    0.694060     0.007504
AU3296   AU        0.501508    0.326454    0.695741     0.007504
AU3297   AU        0.500062    0.362637    0.735214     0.007504
AU3298   AU        0.535172    0.326339    0.733411     0.007504
AU3299   AU        0.535214    0.362147    0.693994     0.007504
AU3300   AU        0.571192    0.326366    0.695031     0.007504
AU3301   AU        0.571140    0.361985    0.733064     0.007504
AU3302   AU        0.604324    0.325966    0.732930     0.007504
AU3303   AU        0.607496    0.362014    0.693112     0.007504
AU3304   AU        0.642087    0.324596    0.692757     0.007504
PD3305   PD        0.639021    0.361745    0.731455     0.005394
PD3306   PD        0.677938    0.325652    0.730181     0.005394
AU3307   AU        0.678657    0.361727    0.693567     0.007504
PD3308   PD        0.713536    0.325313    0.693846     0.005394
PD3309   PD        0.711114    0.360969    0.731854     0.005394
PD3310   PD        0.747042    0.326590    0.732872     0.005394
PD3311   PD        0.751335    0.360071    0.694046     0.005394
PD3312   PD        0.072253    0.397551    0.696082     0.005394
PD3313   PD        0.070505    0.435513    0.733665     0.005394
PD3314   PD        0.105874    0.401620    0.732434     0.005394
PD3315   PD        0.105505    0.435198    0.693972     0.005394
PD3316   PD        0.139794    0.397738    0.695377     0.005394
PD3317   PD        0.142458    0.432711    0.731080     0.005394
PD3318   PD        0.179876    0.397645    0.731853     0.005394
AU3319   AU        0.177148    0.431458    0.694041     0.007504
AU3320   AU        0.211893    0.396086    0.693100     0.007504
AU3321   AU        0.212528    0.433190    0.733473     0.007504
AU3322   AU        0.247258    0.397626    0.733907     0.007504
AU3323   AU        0.248008    0.433381    0.692758     0.007504
AU3324   AU        0.283766    0.398350    0.692427     0.007504
AU3325   AU        0.283906    0.432844    0.732356     0.007504
AU3326   AU        0.321856    0.399306    0.733735     0.007504
AU3327   AU        0.320425    0.434115    0.696062     0.007504
AU3328   AU        0.355791    0.398940    0.693890     0.007504
AU3329   AU        0.354852    0.436240    0.735185     0.007504
AU3330   AU        0.391587    0.397923    0.733884     0.007504
AU3331   AU        0.391455    0.433634    0.695883     0.007504
AU3332   AU        0.425101    0.396951    0.696830     0.007504
AU3333   AU        0.427661    0.432360    0.734933     0.007504
AU3334   AU        0.463250    0.397695    0.735356     0.007504
AU3335   AU        0.459847    0.431881    0.694526     0.007504
AU3336   AU        0.499108    0.397498    0.694788     0.007504
AU3337   AU        0.499967    0.431423    0.733226     0.007504
AU3338   AU        0.536210    0.397279    0.734223     0.007504
AU3339   AU        0.534796    0.432743    0.695430     0.007504
AU3340   AU        0.570373    0.397076    0.693781     0.007504
AU3341   AU        0.570186    0.433788    0.732210     0.007504
AU3342   AU        0.606716    0.398227    0.731771     0.007504
AU3343   AU        0.609368    0.432788    0.693798     0.007504
AU3344   AU        0.642524    0.399368    0.695597     0.007504
AU3345   AU        0.641886    0.433257    0.732672     0.007504
PD3346   PD        0.678163    0.398321    0.734255     0.005394
AU3347   AU        0.677680    0.433207    0.693077     0.007504
PD3348   PD        0.714606    0.396512    0.693850     0.005394
PD3349   PD        0.714391    0.434917    0.730728     0.005394
PD3350   PD        0.749466    0.402671    0.734758     0.005394
PD3351   PD        0.750287    0.433894    0.692805     0.005394
PD3352   PD        0.782709    0.393399    0.698181     0.005394
PD3353   PD        0.786550    0.434942    0.735255     0.005394
PD3354   PD        0.067600    0.469398    0.697163     0.005394
PD3355   PD        0.070862    0.509230    0.728278     0.005394
PD3356   PD        0.103929    0.470180    0.734453     0.005394
PD3357   PD        0.106897    0.506773    0.694751     0.005394
PD3358   PD        0.140894    0.471118    0.694608     0.005394
PD3359   PD        0.142983    0.505183    0.732823     0.005394
PD3360   PD        0.178232    0.467799    0.732024     0.005394
AU3361   AU        0.179293    0.507050    0.691311     0.007504
AU3362   AU        0.212682    0.470452    0.692639     0.007504
AU3363   AU        0.213750    0.503745    0.734121     0.007504
AU3364   AU        0.247291    0.467458    0.732599     0.007504
AU3365   AU        0.249094    0.505195    0.695123     0.007504
AU3366   AU        0.282625    0.470285    0.694160     0.007504
AU3367   AU        0.284474    0.507773    0.735865     0.007504
AU3368   AU        0.318503    0.469626    0.732246     0.007504
AU3369   AU        0.319442    0.506375    0.693642     0.007504
AU3370   AU        0.353266    0.469227    0.696429     0.007504
AU3371   AU        0.354690    0.505622    0.733470     0.007504
AU3372   AU        0.392081    0.470178    0.734325     0.007504
AU3373   AU        0.390531    0.506582    0.696130     0.007504
AU3374   AU        0.425089    0.470958    0.695259     0.007504
AU3375   AU        0.427042    0.506056    0.733808     0.007504
AU3376   AU        0.465175    0.468430    0.732365     0.007504
AU3377   AU        0.461027    0.504718    0.693763     0.007504
AU3378   AU        0.499665    0.468013    0.696053     0.007504
AU3379   AU        0.500893    0.507194    0.734478     0.007504
AU3380   AU        0.536825    0.467288    0.733192     0.007504
AU3381   AU        0.535025    0.505093    0.694153     0.007504
AU3382   AU        0.572807    0.468508    0.696022     0.007504
AU3383   AU        0.569810    0.503995    0.733947     0.007504
AU3384   AU        0.607456    0.467654    0.730452     0.007504
AU3385   AU        0.606503    0.506227    0.695911     0.007504
AU3386   AU        0.643570    0.467136    0.694708     0.007504
AU3387   AU        0.643131    0.504058    0.733206     0.007504
AU3388   AU        0.677953    0.469469    0.730916     0.007504
AU3389   AU        0.678886    0.503955    0.692777     0.007504
AU3390   AU        0.713705    0.468433    0.695125     0.007504
PD3391   PD        0.712140    0.502994    0.731325     0.005394
PD3392   PD        0.751524    0.468536    0.733842     0.005394
PD3393   PD        0.750245    0.502349    0.695215     0.005394
PD3394   PD        0.784435    0.467525    0.693707     0.005394
PD3395   PD        0.786088    0.505193    0.731540     0.005394
PD3396   PD        0.068950    0.542939    0.689335     0.005394
PD3397   PD        0.109149    0.539858    0.733051     0.005394
PD3398   PD        0.104218    0.581575    0.693111     0.005394
PD3399   PD        0.142679    0.541886    0.694100     0.005394
PD3400   PD        0.140313    0.576504    0.732971     0.005394
PD3401   PD        0.176988    0.538905    0.734526     0.005394
PD3402   PD        0.177059    0.576663    0.693796     0.005394
AU3403   AU        0.213288    0.542095    0.691533     0.007504
AU3404   AU        0.212144    0.576658    0.732793     0.007504
AU3405   AU        0.247040    0.539745    0.733270     0.007504
AU3406   AU        0.249472    0.579329    0.695109     0.007504
AU3407   AU        0.283921    0.542867    0.695130     0.007504
AU3408   AU        0.284353    0.575490    0.734573     0.007504
AU3409   AU        0.321096    0.541796    0.734184     0.007504
AU3410   AU        0.319179    0.578152    0.695293     0.007504
AU3411   AU        0.351829    0.540526    0.693724     0.007504
AU3412   AU        0.355660    0.577589    0.732016     0.007504
AU3413   AU        0.390767    0.539750    0.735377     0.007504
AU3414   AU        0.390308    0.576691    0.695969     0.007504
AU3415   AU        0.427882    0.540640    0.696989     0.007504
AU3416   AU        0.427255    0.577135    0.736614     0.007504
AU3417   AU        0.462692    0.542704    0.735261     0.007504
AU3418   AU        0.463932    0.577378    0.696628     0.007504
AU3419   AU        0.499968    0.541975    0.695839     0.007504
AU3420   AU        0.499984    0.579003    0.735385     0.007504
AU3421   AU        0.536090    0.542168    0.734265     0.007504
AU3422   AU        0.535663    0.577597    0.696498     0.007504
AU3423   AU        0.572004    0.539602    0.696143     0.007504
AU3424   AU        0.571627    0.575672    0.733813     0.007504
AU3425   AU        0.608891    0.539599    0.735101     0.007504
AU3426   AU        0.606694    0.576647    0.695155     0.007504
AU3427   AU        0.643339    0.539315    0.693646     0.007504
PD3428   PD        0.642379    0.578100    0.732700     0.005394
PD3429   PD        0.678056    0.539779    0.727063     0.005394
PD3430   PD        0.680896    0.574653    0.691431     0.005394
PD3431   PD        0.713456    0.539124    0.692466     0.005394
PD3432   PD        0.710036    0.573034    0.732263     0.005394
PD3433   PD        0.747373    0.536304    0.730915     0.005394
PD3434   PD        0.745907    0.574814    0.690943     0.005394
PD3435   PD        0.780668    0.539481    0.695887     0.005394
PD3436   PD        0.109199    0.613322    0.730854     0.005394
PD3437   PD        0.108814    0.649880    0.696281     0.005394
PD3438   PD        0.141883    0.610820    0.694560     0.005394
PD3439   PD        0.145295    0.648414    0.736068     0.005394
PD3440   PD        0.177789    0.613310    0.733302     0.005394
PD3441   PD        0.177011    0.649534    0.696655     0.005394
AU3442   AU        0.214080    0.612323    0.696116     0.007504
PD3443   PD        0.212363    0.647687    0.734929     0.005394
AU3444   AU        0.248091    0.611745    0.732465     0.007504
AU3445   AU        0.248585    0.644688    0.694943     0.007504
AU3446   AU        0.284042    0.612992    0.694080     0.007504
AU3447   AU        0.283922    0.648240    0.733175     0.007504
AU3448   AU        0.316892    0.613322    0.734524     0.007504
AU3449   AU        0.319376    0.647372    0.695221     0.007504
AU3450   AU        0.355034    0.614864    0.695785     0.007504
AU3451   AU        0.354914    0.648554    0.735357     0.007504
AU3452   AU        0.392501    0.613350    0.732802     0.007504
AU3453   AU        0.389255    0.648315    0.693690     0.007504
AU3454   AU        0.428252    0.612508    0.693162     0.007504
AU3455   AU        0.428104    0.648867    0.732671     0.007504
AU3456   AU        0.463392    0.613048    0.736534     0.007504
AU3457   AU        0.461548    0.649656    0.696546     0.007504
AU3458   AU        0.497745    0.612696    0.695345     0.007504
AU3459   AU        0.499037    0.647447    0.733456     0.007504
AU3460   AU        0.533948    0.613472    0.731947     0.007504
AU3461   AU        0.533608    0.647972    0.695955     0.007504
AU3462   AU        0.570205    0.612535    0.694485     0.007504
AU3463   AU        0.571228    0.647268    0.730215     0.007504
AU3464   AU        0.604645    0.613220    0.731320     0.007504
AU3465   AU        0.606076    0.648421    0.693418     0.007504
PD3466   PD        0.640583    0.614094    0.692381     0.005394
PD3467   PD        0.641329    0.647615    0.732409     0.005394
PD3468   PD        0.678067    0.614719    0.734279     0.005394
PD3469   PD        0.675891    0.646098    0.691821     0.005394
PD3470   PD        0.713416    0.611451    0.688805     0.005394
PD3471   PD        0.713583    0.649978    0.730645     0.005394
PD3472   PD        0.747857    0.649015    0.771230     0.005394
PD3473   PD        0.745189    0.650881    0.689196     0.005394
PD3474   PD        0.143581    0.682404    0.698608     0.005394
PD3475   PD        0.177879    0.682542    0.735264     0.005394
PD3476   PD        0.178013    0.717158    0.694024     0.005394
PD3477   PD        0.214179    0.681971    0.691934     0.005394
PD3478   PD        0.214211    0.718374    0.731864     0.005394
PD3479   PD        0.246320    0.684101    0.731864     0.005394
PD3480   PD        0.249616    0.719158    0.694547     0.005394
AU3481   AU        0.282354    0.682862    0.695000     0.007504
PD3482   PD        0.283206    0.718239    0.732473     0.005394
AU3483   AU        0.320586    0.682928    0.731790     0.007504
PD3484   PD        0.320478    0.718173    0.696730     0.005394
AU3485   AU        0.356871    0.682683    0.694571     0.007504
PD3486   PD        0.355945    0.721794    0.730663     0.005394
AU3487   AU        0.391704    0.684371    0.732320     0.007504
AU3488   AU        0.391807    0.717911    0.696829     0.007504
AU3489   AU        0.427316    0.685331    0.694031     0.007504
AU3490   AU        0.428410    0.719316    0.733150     0.007504
AU3491   AU        0.462252    0.683876    0.733533     0.007504
AU3492   AU        0.465061    0.718261    0.695349     0.007504
AU3493   AU        0.499955    0.683906    0.694116     0.007504
PD3494   PD        0.499628    0.716386    0.734567     0.005394
AU3495   AU        0.537072    0.683570    0.733895     0.007504
AU3496   AU        0.534537    0.718540    0.695552     0.007504
AU3497   AU        0.569370    0.683277    0.693989     0.007504
PD3498   PD        0.569516    0.719229    0.733566     0.005394
PD3499   PD        0.604646    0.683764    0.730492     0.005394
PD3500   PD        0.604694    0.716668    0.693281     0.005394
PD3501   PD        0.641088    0.682183    0.693413     0.005394
PD3502   PD        0.641910    0.717736    0.735066     0.005394
PD3503   PD        0.677170    0.683279    0.732895     0.005394
PD3504   PD        0.677017    0.718654    0.693313     0.005394
PD3505   PD        0.711145    0.684450    0.690837     0.005394
PD3506   PD        0.211797    0.754962    0.693897     0.005394
PD3507   PD        0.246075    0.753702    0.730795     0.005394
PD3508   PD        0.246980    0.787340    0.693035     0.005394
PD3509   PD        0.287011    0.757199    0.692347     0.005394
PD3510   PD        0.282074    0.788831    0.731997     0.005394
PD3511   PD        0.319542    0.755635    0.731867     0.005394
PD3512   PD        0.320268    0.792255    0.693924     0.005394
PD3513   PD        0.357374    0.755066    0.694111     0.005394
PD3514   PD        0.356036    0.790512    0.730217     0.005394
PD3515   PD        0.390500    0.756475    0.730715     0.005394
PD3516   PD        0.390415    0.793562    0.693786     0.005394
PD3517   PD        0.429978    0.753458    0.697103     0.005394
PD3518   PD        0.425162    0.789496    0.731943     0.005394
PD3519   PD        0.461017    0.754190    0.735205     0.005394
PD3520   PD        0.458805    0.792937    0.695771     0.005394
PD3521   PD        0.499552    0.753485    0.692107     0.005394
PD3522   PD        0.497441    0.787335    0.732215     0.005394
PD3523   PD        0.531625    0.754073    0.734126     0.005394
PD3524   PD        0.531005    0.792212    0.695553     0.005394
PD3525   PD        0.567829    0.753502    0.693088     0.005394
PD3526   PD        0.572313    0.789403    0.731301     0.005394
PD3527   PD        0.607012    0.750803    0.728545     0.005394
PD3528   PD        0.604489    0.787016    0.694345     0.005394
PD3529   PD        0.642806    0.753446    0.694568     0.005394
PD3530   PD        0.356134    0.825682    0.692504     0.005394
PD3531   PD        0.389425    0.823907    0.731145     0.005394
PD3532   PD        0.425522    0.827417    0.695343     0.005394
PD3533   PD        0.458784    0.823540    0.735404     0.005394
PD3534   PD        0.502000    0.870088    0.731055     0.005394
PD3535   PD        0.396737    0.151011    0.771083     0.005394
PD3536   PD        0.501579    0.118500    0.795996     0.005394
PD3537   PD        0.246789    0.218903    0.773280     0.005394
PD3538   PD        0.285583    0.186568    0.770609     0.005394
PD3539   PD        0.288145    0.221565    0.804958     0.005394
PD3540   PD        0.322647    0.218798    0.770152     0.005394
PD3541   PD        0.359337    0.185215    0.767347     0.005394
PD3542   PD        0.359890    0.223060    0.806915     0.005394
PD3543   PD        0.393001    0.188634    0.807199     0.005394
PD3544   PD        0.394355    0.218525    0.767346     0.005394
PD3545   PD        0.428847    0.185332    0.768823     0.005394
PD3546   PD        0.428611    0.220830    0.807494     0.005394
PD3547   PD        0.464077    0.188414    0.805752     0.005394
PD3548   PD        0.463535    0.221254    0.767913     0.005394
PD3549   PD        0.501870    0.186411    0.767464     0.005394
PD3550   PD        0.500823    0.222477    0.804816     0.005394
PD3551   PD        0.537293    0.218103    0.771852     0.005394
PD3552   PD        0.573206    0.183778    0.766286     0.005394
PD3553   PD        0.575660    0.212943    0.806848     0.005394
PD3554   PD        0.607588    0.219585    0.765820     0.005394
PD3555   PD        0.176735    0.291962    0.769761     0.005394
PD3556   PD        0.214127    0.257015    0.770641     0.005394
PD3557   PD        0.209431    0.290843    0.806700     0.005394
PD3558   PD        0.250907    0.256806    0.804918     0.005394
PD3559   PD        0.248426    0.291525    0.771163     0.005394
PD3560   PD        0.283554    0.254350    0.768406     0.005394
PD3561   PD        0.285160    0.290963    0.808817     0.005394
PD3562   PD        0.319725    0.255502    0.806784     0.005394
PD3563   PD        0.320133    0.292741    0.769347     0.005394
PD3564   PD        0.358568    0.255079    0.768762     0.005394
PD3565   PD        0.357929    0.290270    0.806339     0.005394
PD3566   PD        0.394169    0.256381    0.805561     0.005394
AU3567   AU        0.393166    0.291354    0.768124     0.007504
AU3568   AU        0.428722    0.255743    0.769146     0.007504
AU3569   AU        0.426603    0.292495    0.807611     0.007504
PD3570   PD        0.462255    0.254944    0.807077     0.005394
AU3571   AU        0.462466    0.290275    0.771339     0.007504
PD3572   PD        0.498275    0.255033    0.768514     0.005394
PD3573   PD        0.498362    0.292592    0.808611     0.005394
PD3574   PD        0.532645    0.257086    0.808673     0.005394
AU3575   AU        0.535759    0.290700    0.769123     0.007504
PD3576   PD        0.569509    0.255449    0.768890     0.005394
PD3577   PD        0.572229    0.292834    0.807958     0.005394
PD3578   PD        0.605558    0.253371    0.806610     0.005394
PD3579   PD        0.605138    0.290245    0.769500     0.005394
PD3580   PD        0.642025    0.256443    0.763869     0.005394
PD3581   PD        0.639560    0.289332    0.805080     0.005394
PD3582   PD        0.674452    0.292725    0.768204     0.005394
PD3583   PD        0.106442    0.326049    0.729368     0.005394
PD3584   PD        0.175976    0.324497    0.808247     0.005394
PD3585   PD        0.177669    0.362680    0.771509     0.005394
PD3586   PD        0.212786    0.325769    0.771547     0.005394
PD3587   PD        0.211463    0.364137    0.806047     0.005394
PD3588   PD        0.249762    0.324310    0.807239     0.005394
AU3589   AU        0.247952    0.361577    0.771069     0.007504
PD3590   PD        0.284709    0.325497    0.769812     0.005394
PD3591   PD        0.283365    0.363434    0.810392     0.005394
PD3592   PD        0.322989    0.328699    0.807456     0.005394
AU3593   AU        0.319254    0.362249    0.771683     0.007504
AU3594   AU        0.356658    0.328186    0.771296     0.007504
AU3595   AU        0.356717    0.363705    0.806878     0.007504
AU3596   AU        0.391146    0.327538    0.807869     0.007504
AU3597   AU        0.392263    0.360326    0.769770     0.007504
AU3598   AU        0.427246    0.325916    0.770677     0.007504
AU3599   AU        0.430232    0.360746    0.808960     0.007504
AU3600   AU        0.464577    0.325124    0.807062     0.007504
AU3601   AU        0.463371    0.363204    0.772827     0.007504
AU3602   AU        0.500118    0.325575    0.772116     0.007504
AU3603   AU        0.500552    0.361704    0.809887     0.007504
AU3604   AU        0.535090    0.325843    0.809271     0.007504
AU3605   AU        0.534587    0.361563    0.771692     0.007504
AU3606   AU        0.568720    0.326333    0.770858     0.007504
AU3607   AU        0.570308    0.361698    0.809427     0.007504
PD3608   PD        0.606370    0.326979    0.805761     0.005394
AU3609   AU        0.604832    0.360598    0.770390     0.007504
PD3610   PD        0.639360    0.325054    0.768826     0.005394
PD3611   PD        0.639337    0.363786    0.807366     0.005394
PD3612   PD        0.672193    0.324305    0.806566     0.005394
PD3613   PD        0.674473    0.361448    0.771232     0.005394
PD3614   PD        0.710671    0.327687    0.769566     0.005394
PD3615   PD        0.106385    0.433417    0.770842     0.005394
PD3616   PD        0.143926    0.400242    0.768561     0.005394
PD3617   PD        0.145981    0.434110    0.808366     0.005394
PD3618   PD        0.180869    0.398150    0.805518     0.005394
PD3619   PD        0.179009    0.435854    0.769769     0.005394
AU3620   AU        0.212956    0.398416    0.769935     0.007504
PD3621   PD        0.214400    0.435785    0.809108     0.005394
PD3622   PD        0.250042    0.399492    0.807450     0.005394
AU3623   AU        0.245865    0.433147    0.769974     0.007504
AU3624   AU        0.285715    0.396899    0.771335     0.007504
PD3625   PD        0.285827    0.434188    0.807470     0.005394
PD3626   PD        0.317748    0.394224    0.809176     0.005394
AU3627   AU        0.320220    0.433941    0.770533     0.007504
AU3628   AU        0.356848    0.397782    0.770195     0.007504
AU3629   AU        0.356277    0.432436    0.807809     0.007504
AU3630   AU        0.392358    0.398096    0.808005     0.007504
AU3631   AU        0.392050    0.435865    0.772209     0.007504
AU3632   AU        0.427261    0.397042    0.771387     0.007504
AU3633   AU        0.426260    0.433269    0.809948     0.007504
AU3634   AU        0.465155    0.399584    0.809024     0.007504
AU3635   AU        0.463530    0.434015    0.771060     0.007504
AU3636   AU        0.499682    0.398553    0.773382     0.007504
AU3637   AU        0.500443    0.433592    0.809211     0.007504
AU3638   AU        0.534896    0.395697    0.808223     0.007504
AU3639   AU        0.536195    0.434351    0.771534     0.007504
AU3640   AU        0.572832    0.398263    0.770484     0.007504
AU3641   AU        0.570906    0.434839    0.808892     0.007504
PD3642   PD        0.606468    0.397843    0.809184     0.005394
AU3643   AU        0.604418    0.434102    0.769877     0.007504
PD3644   PD        0.639167    0.399549    0.771598     0.005394
PD3645   PD        0.641267    0.433377    0.808870     0.005394
PD3646   PD        0.675173    0.398866    0.805386     0.005394
PD3647   PD        0.681236    0.435594    0.770198     0.005394
PD3648   PD        0.711676    0.396778    0.770419     0.005394
PD3649   PD        0.714717    0.431706    0.807303     0.005394
PD3650   PD        0.750033    0.438843    0.772958     0.005394
PD3651   PD        0.105126    0.505685    0.769411     0.005394
PD3652   PD        0.140821    0.469894    0.769032     0.005394
PD3653   PD        0.144716    0.505555    0.810791     0.005394
PD3654   PD        0.179585    0.469837    0.806779     0.005394
PD3655   PD        0.175308    0.504437    0.769754     0.005394
AU3656   AU        0.214343    0.470299    0.770372     0.007504
PD3657   PD        0.213891    0.504252    0.809619     0.005394
AU3658   AU        0.249017    0.469844    0.808130     0.007504
AU3659   AU        0.249222    0.505579    0.770858     0.007504
AU3660   AU        0.283387    0.469846    0.770758     0.007504
AU3661   AU        0.284020    0.503889    0.808045     0.007504
AU3662   AU        0.320893    0.468538    0.810698     0.007504
AU3663   AU        0.319561    0.506426    0.773523     0.007504
AU3664   AU        0.355502    0.469641    0.773695     0.007504
AU3665   AU        0.355103    0.506277    0.809858     0.007504
AU3666   AU        0.391490    0.468573    0.810837     0.007504
AU3667   AU        0.390737    0.505598    0.774087     0.007504
AU3668   AU        0.427068    0.470322    0.772049     0.007504
AU3669   AU        0.427846    0.504056    0.810680     0.007504
AU3670   AU        0.464412    0.467841    0.808948     0.007504
AU3671   AU        0.465016    0.503977    0.771081     0.007504
AU3672   AU        0.501130    0.469971    0.772537     0.007504
AU3673   AU        0.500490    0.507251    0.809926     0.007504
AU3674   AU        0.536269    0.470757    0.809732     0.007504
AU3675   AU        0.536870    0.504414    0.771200     0.007504
AU3676   AU        0.570552    0.469059    0.772267     0.007504
AU3677   AU        0.571541    0.505463    0.806912     0.007504
AU3678   AU        0.607582    0.468447    0.807993     0.007504
AU3679   AU        0.606248    0.504698    0.771313     0.007504
AU3680   AU        0.641518    0.469305    0.769578     0.007504
PD3681   PD        0.641056    0.503727    0.807574     0.005394
PD3682   PD        0.680572    0.466156    0.810156     0.005394
PD3683   PD        0.678799    0.506196    0.768928     0.005394
PD3684   PD        0.713644    0.468739    0.771140     0.005394
PD3685   PD        0.714389    0.500604    0.808583     0.005394
PD3686   PD        0.746869    0.502636    0.768196     0.005394
PD3687   PD        0.141120    0.540130    0.772979     0.005394
PD3688   PD        0.176819    0.540187    0.809144     0.005394
PD3689   PD        0.176100    0.576814    0.770993     0.005394
PD3690   PD        0.213409    0.540654    0.772897     0.005394
PD3691   PD        0.213458    0.574017    0.810921     0.005394
PD3692   PD        0.249961    0.541036    0.809088     0.005394
AU3693   AU        0.248894    0.575412    0.772502     0.007504
AU3694   AU        0.283472    0.541277    0.771913     0.007504
AU3695   AU        0.287309    0.576428    0.810631     0.007504
AU3696   AU        0.319047    0.540665    0.808466     0.007504
AU3697   AU        0.320255    0.575332    0.772503     0.007504
AU3698   AU        0.355630    0.541362    0.772099     0.007504
PD3699   PD        0.355188    0.577377    0.812125     0.005394
AU3700   AU        0.392267    0.540522    0.810286     0.007504
AU3701   AU        0.389095    0.577417    0.772460     0.007504
AU3702   AU        0.428681    0.540132    0.772919     0.007504
AU3703   AU        0.427174    0.575063    0.809120     0.007504
AU3704   AU        0.464340    0.539055    0.808447     0.007504
AU3705   AU        0.464057    0.577236    0.771821     0.007504
AU3706   AU        0.498215    0.540976    0.771575     0.007504
AU3707   AU        0.499207    0.576156    0.807944     0.007504
AU3708   AU        0.534824    0.540809    0.809918     0.007504
AU3709   AU        0.536718    0.575887    0.772456     0.007504
AU3710   AU        0.571249    0.540969    0.772311     0.007504
PD3711   PD        0.572275    0.577109    0.806690     0.005394
PD3712   PD        0.605368    0.538310    0.808052     0.005394
PD3713   PD        0.607589    0.576367    0.771984     0.005394
PD3714   PD        0.643460    0.538610    0.769914     0.005394
PD3715   PD        0.647041    0.576478    0.807031     0.005394
PD3716   PD        0.714840    0.533577    0.844230     0.005394
PD3717   PD        0.678698    0.575992    0.771680     0.005394
PD3718   PD        0.714646    0.540350    0.771724     0.005394
PD3719   PD        0.144129    0.611636    0.772629     0.005394
PD3720   PD        0.176667    0.611477    0.808573     0.005394
PD3721   PD        0.176635    0.648797    0.773177     0.005394
PD3722   PD        0.212791    0.608279    0.773533     0.005394
PD3723   PD        0.214326    0.644148    0.806904     0.005394
PD3724   PD        0.249310    0.609538    0.807567     0.005394
PD3725   PD        0.248268    0.647321    0.769826     0.005394
AU3726   AU        0.283990    0.609740    0.772456     0.007504
PD3727   PD        0.282670    0.646923    0.809282     0.005394
PD3728   PD        0.319954    0.612459    0.813157     0.005394
PD3729   PD        0.317614    0.649990    0.772878     0.005394
AU3730   AU        0.356177    0.612951    0.769275     0.007504
PD3731   PD        0.358287    0.646629    0.807084     0.005394
PD3732   PD        0.392546    0.615003    0.808195     0.005394
AU3733   AU        0.392343    0.647951    0.770237     0.007504
AU3734   AU        0.427156    0.613766    0.772693     0.007504
PD3735   PD        0.429928    0.648587    0.808938     0.005394
AU3736   AU        0.465047    0.610887    0.809342     0.007504
AU3737   AU        0.465665    0.647537    0.771832     0.007504
AU3738   AU        0.499687    0.613204    0.772124     0.007504
PD3739   PD        0.499712    0.647402    0.810489     0.005394
PD3740   PD        0.532683    0.609320    0.808856     0.005394
AU3741   AU        0.534190    0.648256    0.770504     0.007504
AU3742   AU        0.569053    0.615102    0.767991     0.007504
PD3743   PD        0.570280    0.646843    0.806687     0.005394
PD3744   PD        0.604337    0.614052    0.808454     0.005394
PD3745   PD        0.606336    0.646036    0.769862     0.005394
PD3746   PD        0.642494    0.614246    0.769007     0.005394
PD3747   PD        0.639707    0.645940    0.809455     0.005394
PD3748   PD        0.681271    0.613054    0.807327     0.005394
PD3749   PD        0.673409    0.648508    0.769065     0.005394
PD3750   PD        0.712186    0.613415    0.769510     0.005394
PD3751   PD        0.214386    0.685232    0.771906     0.005394
PD3752   PD        0.247688    0.683186    0.809582     0.005394
PD3753   PD        0.250372    0.721578    0.773045     0.005394
PD3754   PD        0.282644    0.683979    0.769049     0.005394
PD3755   PD        0.286224    0.715791    0.807494     0.005394
PD3756   PD        0.320165    0.681962    0.810397     0.005394
PD3757   PD        0.319713    0.716866    0.771045     0.005394
PD3758   PD        0.354391    0.684732    0.770861     0.005394
PD3759   PD        0.352452    0.717074    0.809907     0.005394
PD3760   PD        0.391559    0.681120    0.810241     0.005394
PD3761   PD        0.391690    0.717226    0.769681     0.005394
AU3762   AU        0.428107    0.684127    0.770284     0.007504
PD3763   PD        0.427889    0.716603    0.807665     0.005394
PD3764   PD        0.461931    0.682623    0.809214     0.005394
PD3765   PD        0.462878    0.718326    0.772088     0.005394
PD3766   PD        0.498919    0.684119    0.770626     0.005394
PD3767   PD        0.499127    0.715284    0.812285     0.005394
PD3768   PD        0.535966    0.679593    0.809724     0.005394
PD3769   PD        0.534959    0.720130    0.771497     0.005394
PD3770   PD        0.570646    0.679770    0.769475     0.005394
PD3771   PD        0.601233    0.745580    0.811649     0.005394
PD3772   PD        0.607237    0.679664    0.807519     0.005394
PD3773   PD        0.604912    0.716774    0.770023     0.005394
PD3774   PD        0.638876    0.680787    0.767649     0.005394
PD3775   PD        0.287800    0.753303    0.770534     0.005394
PD3776   PD        0.356506    0.756381    0.771438     0.005394
PD3777   PD        0.391674    0.748441    0.807125     0.005394
PD3778   PD        0.394115    0.791159    0.771765     0.005394
PD3779   PD        0.424680    0.751981    0.769583     0.005394
PD3780   PD        0.463879    0.747160    0.811699     0.005394
PD3781   PD        0.459793    0.786339    0.772137     0.005394
PD3782   PD        0.494300    0.752883    0.770594     0.005394
PD3783   PD        0.571437    0.754179    0.767456     0.005394
PD3784   PD        0.388956    0.218563    0.846474     0.005394
PD3785   PD        0.463417    0.223897    0.843570     0.005394
PD3786   PD        0.251112    0.288282    0.845968     0.005394
PD3787   PD        0.322333    0.294642    0.842340     0.005394
PD3788   PD        0.355507    0.256849    0.842384     0.005394
PD3789   PD        0.357194    0.290316    0.882239     0.005394
PD3790   PD        0.390634    0.290394    0.842978     0.005394
PD3791   PD        0.426053    0.257211    0.844718     0.005394
PD3792   PD        0.423075    0.292203    0.879927     0.005394
PD3793   PD        0.460898    0.292002    0.844632     0.005394
PD3794   PD        0.494134    0.257672    0.845809     0.005394
PD3795   PD        0.500107    0.288766    0.883704     0.005394
PD3796   PD        0.534520    0.291363    0.846411     0.005394
PD3797   PD        0.604385    0.286200    0.847230     0.005394
PD3798   PD        0.251587    0.362493    0.846774     0.005394
PD3799   PD        0.285441    0.324769    0.846423     0.005394
PD3800   PD        0.286680    0.361725    0.880658     0.005394
PD3801   PD        0.321329    0.326643    0.879991     0.005394
PD3802   PD        0.321816    0.360593    0.845994     0.005394
PD3803   PD        0.357729    0.329176    0.843272     0.005394
PD3804   PD        0.358563    0.362241    0.879262     0.005394
PD3805   PD        0.392877    0.326033    0.878446     0.005394
PD3806   PD        0.391594    0.363804    0.843192     0.005394
PD3807   PD        0.428984    0.328428    0.845936     0.005394
PD3808   PD        0.425695    0.361034    0.882891     0.005394
PD3809   PD        0.461207    0.325185    0.884672     0.005394
PD3810   PD        0.465802    0.361496    0.847049     0.005394
PD3811   PD        0.500290    0.324855    0.847819     0.005394
PD3812   PD        0.497920    0.361207    0.882505     0.005394
PD3813   PD        0.537818    0.325739    0.882587     0.005394
PD3814   PD        0.535369    0.358592    0.846260     0.005394
PD3815   PD        0.571960    0.325948    0.845653     0.005394
PD3816   PD        0.571994    0.359498    0.886332     0.005394
PD3817   PD        0.605885    0.365501    0.847804     0.005394
PD3818   PD        0.179518    0.432895    0.842716     0.005394
PD3819   PD        0.213688    0.396590    0.845462     0.005394
PD3820   PD        0.244622    0.395113    0.884777     0.005394
PD3821   PD        0.248408    0.431831    0.846572     0.005394
PD3822   PD        0.285117    0.397334    0.846636     0.005394
PD3823   PD        0.283053    0.435219    0.881199     0.005394
PD3824   PD        0.321957    0.399674    0.881988     0.005394
PD3825   PD        0.319910    0.433960    0.845850     0.005394
PD3826   PD        0.355164    0.398107    0.843454     0.005394
PD3827   PD        0.357446    0.432808    0.880397     0.005394
PD3828   PD        0.395355    0.398250    0.882842     0.005394
AU3829   AU        0.391607    0.433566    0.845653     0.007504
AU3830   AU        0.428208    0.396252    0.844605     0.007504
PD3831   PD        0.429027    0.431862    0.882985     0.005394
PD3832   PD        0.462893    0.397290    0.885699     0.005394
PD3833   PD        0.462713    0.434355    0.847111     0.005394
PD3834   PD        0.500243    0.397123    0.847346     0.005394
PD3835   PD        0.494912    0.437260    0.882997     0.005394
PD3836   PD        0.535445    0.391969    0.882972     0.005394
PD3837   PD        0.536031    0.432871    0.846640     0.005394
PD3838   PD        0.571826    0.395944    0.846154     0.005394
PD3839   PD        0.576852    0.434218    0.881055     0.005394
PD3840   PD        0.609013    0.393689    0.883909     0.005394
PD3841   PD        0.607768    0.434789    0.843402     0.005394
PD3842   PD        0.643178    0.399668    0.845624     0.005394
PD3843   PD        0.676636    0.430635    0.844037     0.005394
PD3844   PD        0.179725    0.504666    0.849047     0.005394
PD3845   PD        0.214761    0.471107    0.844879     0.005394
PD3846   PD        0.247812    0.468511    0.880113     0.005394
PD3847   PD        0.252438    0.503199    0.847463     0.005394
PD3848   PD        0.284154    0.468214    0.845281     0.005394
PD3849   PD        0.285958    0.501551    0.884657     0.005394
PD3850   PD        0.320124    0.467453    0.882225     0.005394
PD3851   PD        0.317496    0.502507    0.845014     0.005394
PD3852   PD        0.355093    0.470049    0.846391     0.005394
PD3853   PD        0.357245    0.505034    0.882344     0.005394
PD3854   PD        0.395782    0.469994    0.883691     0.005394
AU3855   AU        0.391705    0.504831    0.847314     0.007504
AU3856   AU        0.428239    0.469361    0.845890     0.007504
PD3857   PD        0.428664    0.505232    0.885320     0.005394
PD3858   PD        0.461686    0.470148    0.882516     0.005394
PD3859   PD        0.465753    0.504952    0.848307     0.005394
PD3860   PD        0.500853    0.469103    0.847035     0.005394
PD3861   PD        0.502242    0.502122    0.886656     0.005394
PD3862   PD        0.536717    0.465658    0.883264     0.005394
PD3863   PD        0.537728    0.503340    0.846254     0.005394
PD3864   PD        0.573295    0.470078    0.846630     0.005394
PD3865   PD        0.572038    0.504880    0.885084     0.005394
PD3866   PD        0.611195    0.467614    0.882498     0.005394
PD3867   PD        0.603678    0.506076    0.845371     0.005394
PD3868   PD        0.643208    0.470750    0.843830     0.005394
PD3869   PD        0.678034    0.503268    0.845045     0.005394
PD3870   PD        0.214006    0.537676    0.848615     0.005394
PD3871   PD        0.251844    0.541074    0.882114     0.005394
PD3872   PD        0.251315    0.575155    0.846324     0.005394
PD3873   PD        0.284472    0.537905    0.844858     0.005394
PD3874   PD        0.286888    0.575010    0.884261     0.005394
PD3875   PD        0.318512    0.539317    0.882637     0.005394
PD3876   PD        0.320646    0.575978    0.848142     0.005394
PD3877   PD        0.357173    0.543069    0.844956     0.005394
PD3878   PD        0.352490    0.576683    0.885745     0.005394
PD3879   PD        0.390650    0.539116    0.885640     0.005394
PD3880   PD        0.391271    0.575505    0.849601     0.005394
PD3881   PD        0.428206    0.539032    0.847263     0.005394
PD3882   PD        0.428117    0.576150    0.883913     0.005394
PD3883   PD        0.462273    0.538529    0.886620     0.005394
PD3884   PD        0.463705    0.575009    0.848857     0.005394
PD3885   PD        0.498361    0.540360    0.848548     0.005394
PD3886   PD        0.498020    0.576511    0.882392     0.005394
PD3887   PD        0.537448    0.539261    0.881545     0.005394
PD3888   PD        0.533777    0.577376    0.848268     0.005394
PD3889   PD        0.571207    0.540962    0.844571     0.005394
PD3890   PD        0.571540    0.574906    0.883288     0.005394
PD3891   PD        0.605804    0.539201    0.883063     0.005394
PD3892   PD        0.604694    0.576823    0.847576     0.005394
PD3893   PD        0.641666    0.541801    0.844214     0.005394
PD3894   PD        0.249701    0.642324    0.845969     0.005394
PD3895   PD        0.283310    0.611310    0.847540     0.005394
PD3896   PD        0.319008    0.609652    0.884671     0.005394
PD3897   PD        0.315990    0.647480    0.849399     0.005394
PD3898   PD        0.353475    0.611225    0.849983     0.005394
PD3899   PD        0.355229    0.646297    0.883977     0.005394
PD3900   PD        0.389561    0.609612    0.885702     0.005394
PD3901   PD        0.390799    0.645360    0.848396     0.005394
PD3902   PD        0.428712    0.613106    0.847851     0.005394
PD3903   PD        0.429933    0.646790    0.887242     0.005394
PD3904   PD        0.463614    0.610916    0.883492     0.005394
PD3905   PD        0.464708    0.645714    0.847573     0.005394
PD3906   PD        0.500826    0.611749    0.847697     0.005394
PD3907   PD        0.498139    0.645228    0.885898     0.005394
PD3908   PD        0.536279    0.610566    0.888290     0.005394
PD3909   PD        0.534558    0.646748    0.849456     0.005394
PD3910   PD        0.569296    0.611727    0.849145     0.005394
PD3911   PD        0.607692    0.641931    0.846555     0.005394
PD3912   PD        0.355437    0.681461    0.844785     0.005394
PD3913   PD        0.388829    0.718274    0.845428     0.005394
PD3914   PD        0.426777    0.681062    0.845402     0.005394
PD3915   PD        0.461263    0.713772    0.848728     0.005394
PD3916   PD        0.498615    0.681274    0.847482     0.005394
PD3917   PD        0.394434    0.433787    0.919698     0.005394
PD3918   PD        0.429426    0.399797    0.921993     0.005394
PD3919   PD        0.463348    0.434713    0.921365     0.005394
PD3920   PD        0.360690    0.469789    0.915760     0.005394
PD3921   PD        0.394752    0.504937    0.921378     0.005394
PD3922   PD        0.428175    0.468282    0.921365     0.005394
PD3923   PD        0.461758    0.502694    0.920626     0.005394
PD3924   PD        0.495893    0.468329    0.922824     0.005394
PD3925   PD        0.428463    0.537444    0.920324     0.005394
