data_00001
_audit_creation_method   'DISCUS'

_data_chemical_name_common 'Cu.cell Pearson1985'

_cell_length_a             54.2220
_cell_length_b             54.2220
_cell_length_c             54.2220
_cell_angle_alpha     90.0000
_cell_angle_beta      90.0000
_cell_angle_gamma     90.0000

_symmetry_space_group_name_H-M   'P1              '

loop_
_atom_site_label
_atom_site_symbol
_atom_site_fract_x
_atom_site_fract_y
_atom_site_fract_z
_atom_site_u_iso_or_equiv
NI1   NI        0.367333    0.334000    0.000667     0.004307
NI2   NI        0.400667    0.300667    0.000667     0.004307
NI3   NI        0.434000    0.334000    0.000667     0.004307
NI4   NI        0.467333    0.300667    0.000667     0.004307
NI5   NI        0.500667    0.334000    0.000667     0.004307
NI6   NI        0.300667    0.400667    0.000667     0.004307
NI7   NI        0.334000    0.367333    0.000667     0.004307
NI8   NI        0.367333    0.400667    0.000667     0.004307
NI9   NI        0.400667    0.367333    0.000667     0.004307
NI10   NI        0.434000    0.400667    0.000667     0.004307
NI11   NI        0.467333    0.367333    0.000667     0.004307
NI12   NI        0.500667    0.400667    0.000667     0.004307
NI13   NI        0.534000    0.367333    0.000667     0.004307
NI14   NI        0.567333    0.400667    0.000667     0.004307
NI15   NI        0.300667    0.467333    0.000667     0.004307
NI16   NI        0.334000    0.434000    0.000667     0.004307
NI17   NI        0.367333    0.467333    0.000667     0.004307
NI18   NI        0.400667    0.434000    0.000667     0.004307
NI19   NI        0.434000    0.467333    0.000667     0.004307
NI20   NI        0.467333    0.434000    0.000667     0.004307
NI21   NI        0.500667    0.467333    0.000667     0.004307
NI22   NI        0.534000    0.434000    0.000667     0.004307
NI23   NI        0.567333    0.467333    0.000667     0.004307
NI24   NI        0.334000    0.500667    0.000667     0.004307
NI25   NI        0.367333    0.534000    0.000667     0.004307
NI26   NI        0.400667    0.500667    0.000667     0.004307
NI27   NI        0.434000    0.534000    0.000667     0.004307
NI28   NI        0.467333    0.500667    0.000667     0.004307
NI29   NI        0.500667    0.534000    0.000667     0.004307
NI30   NI        0.534000    0.500667    0.000667     0.004307
NI31   NI        0.400667    0.567333    0.000667     0.004307
NI32   NI        0.467333    0.567333    0.000667     0.004307
NI33   NI        0.300667    0.200667    0.067333     0.004307
NI34   NI        0.367333    0.200667    0.067333     0.004307
NI35   NI        0.400667    0.167333    0.067333     0.004307
NI36   NI        0.434000    0.200667    0.067333     0.004307
NI37   NI        0.467333    0.167333    0.067333     0.004307
NI38   NI        0.500667    0.200667    0.067333     0.004307
NI39   NI        0.567333    0.200667    0.067333     0.004307
NI40   NI        0.234000    0.267333    0.067333     0.004307
NI41   NI        0.267333    0.234000    0.067333     0.004307
NI42   NI        0.300667    0.267333    0.067333     0.004307
NI43   NI        0.334000    0.234000    0.067333     0.004307
NI44   NI        0.334000    0.267333    0.034000     0.004307
NI45   NI        0.367333    0.234000    0.034000     0.004307
NI46   NI        0.367333    0.267333    0.067333     0.004307
NI47   NI        0.400667    0.234000    0.067333     0.004307
NI48   NI        0.400667    0.267333    0.034000     0.004307
NI49   NI        0.434000    0.234000    0.034000     0.004307
NI50   NI        0.434000    0.267333    0.067333     0.004307
NI51   NI        0.467333    0.234000    0.067333     0.004307
NI52   NI        0.467333    0.267333    0.034000     0.004307
NI53   NI        0.500667    0.234000    0.034000     0.004307
NI54   NI        0.500667    0.267333    0.067333     0.004307
NI55   NI        0.534000    0.234000    0.067333     0.004307
NI56   NI        0.534000    0.267333    0.034000     0.004307
NI57   NI        0.567333    0.267333    0.067333     0.004307
NI58   NI        0.600667    0.234000    0.067333     0.004307
NI59   NI        0.634000    0.267333    0.067333     0.004307
NI60   NI        0.200667    0.300667    0.067333     0.004307
NI61   NI        0.234000    0.334000    0.067333     0.004307
NI62   NI        0.267333    0.300667    0.067333     0.004307
NI63   NI        0.267333    0.334000    0.034000     0.004307
NI64   NI        0.300667    0.300667    0.034000     0.004307
NI65   NI        0.300667    0.334000    0.067333     0.004307
NI66   NI        0.334000    0.300667    0.067333     0.004307
NI67   NI        0.334000    0.334000    0.034000     0.004307
NI68   NI        0.367333    0.300667    0.034000     0.004307
NI69   NI        0.367333    0.334000    0.067333     0.004307
NI70   NI        0.400667    0.300667    0.067333     0.004307
NI71   NI        0.400667    0.334000    0.034000     0.004307
NI72   NI        0.434000    0.300667    0.034000     0.004307
NI73   NI        0.434000    0.334000    0.067333     0.004307
NI74   NI        0.467333    0.300667    0.067333     0.004307
NI75   NI        0.467333    0.334000    0.034000     0.004307
NI76   NI        0.500667    0.300667    0.034000     0.004307
NI77   NI        0.500667    0.334000    0.067333     0.004307
NI78   NI        0.534000    0.300667    0.067333     0.004307
NI79   NI        0.534000    0.334000    0.034000     0.004307
NI80   NI        0.567333    0.300667    0.034000     0.004307
NI81   NI        0.567333    0.334000    0.067333     0.004307
NI82   NI        0.600667    0.300667    0.067333     0.004307
NI83   NI        0.600667    0.334000    0.034000     0.004307
NI84   NI        0.634000    0.334000    0.067333     0.004307
NI85   NI        0.667333    0.300667    0.067333     0.004307
NI86   NI        0.167333    0.400667    0.067333     0.004307
NI87   NI        0.200667    0.367333    0.067333     0.004307
NI88   NI        0.234000    0.367333    0.034000     0.004307
NI89   NI        0.234000    0.400667    0.067333     0.004307
NI90   NI        0.267333    0.367333    0.067333     0.004307
NI91   NI        0.267333    0.400667    0.034000     0.004307
NI92   NI        0.300667    0.367333    0.034000     0.004307
NI93   NI        0.300667    0.400667    0.067333     0.004307
NI94   NI        0.334000    0.367333    0.067333     0.004307
NI95   NI        0.334000    0.400667    0.034000     0.004307
NI96   NI        0.367333    0.367333    0.034000     0.004307
NI97   NI        0.367333    0.400667    0.067333     0.004307
NI98   NI        0.400667    0.367333    0.067333     0.004307
NI99   NI        0.400667    0.400667    0.034000     0.004307
NI100   NI        0.434000    0.367333    0.034000     0.004307
NI101   NI        0.434000    0.400667    0.067333     0.004307
NI102   NI        0.467333    0.367333    0.067333     0.004307
NI103   NI        0.467333    0.400667    0.034000     0.004307
NI104   NI        0.500667    0.367333    0.034000     0.004307
NI105   NI        0.500667    0.400667    0.067333     0.004307
NI106   NI        0.534000    0.367333    0.067333     0.004307
NI107   NI        0.534000    0.400667    0.034000     0.004307
NI108   NI        0.567333    0.367333    0.034000     0.004307
NI109   NI        0.567333    0.400667    0.067333     0.004307
NI110   NI        0.600667    0.367333    0.067333     0.004307
NI111   NI        0.600667    0.400667    0.034000     0.004307
NI112   NI        0.634000    0.367333    0.034000     0.004307
NI113   NI        0.634000    0.400667    0.067333     0.004307
NI114   NI        0.667333    0.367333    0.067333     0.004307
NI115   NI        0.700667    0.400667    0.067333     0.004307
NI116   NI        0.167333    0.467333    0.067333     0.004307
NI117   NI        0.200667    0.434000    0.067333     0.004307
NI118   NI        0.234000    0.434000    0.034000     0.004307
NI119   NI        0.234000    0.467333    0.067333     0.004307
NI120   NI        0.267333    0.434000    0.067333     0.004307
NI121   NI        0.267333    0.467333    0.034000     0.004307
NI122   NI        0.300667    0.434000    0.034000     0.004307
NI123   NI        0.300667    0.467333    0.067333     0.004307
NI124   NI        0.334000    0.434000    0.067333     0.004307
NI125   NI        0.334000    0.467333    0.034000     0.004307
NI126   NI        0.367333    0.434000    0.034000     0.004307
NI127   NI        0.367333    0.467333    0.067333     0.004307
NI128   NI        0.400667    0.434000    0.067333     0.004307
NI129   NI        0.400667    0.467333    0.034000     0.004307
NI130   NI        0.434000    0.434000    0.034000     0.004307
NI131   NI        0.434000    0.467333    0.067333     0.004307
NI132   NI        0.467333    0.434000    0.067333     0.004307
NI133   NI        0.467333    0.467333    0.034000     0.004307
NI134   NI        0.500667    0.434000    0.034000     0.004307
NI135   NI        0.500667    0.467333    0.067333     0.004307
NI136   NI        0.534000    0.434000    0.067333     0.004307
NI137   NI        0.534000    0.467333    0.034000     0.004307
NI138   NI        0.567333    0.434000    0.034000     0.004307
NI139   NI        0.567333    0.467333    0.067333     0.004307
NI140   NI        0.600667    0.434000    0.067333     0.004307
NI141   NI        0.600667    0.467333    0.034000     0.004307
NI142   NI        0.634000    0.434000    0.034000     0.004307
NI143   NI        0.634000    0.467333    0.067333     0.004307
NI144   NI        0.667333    0.434000    0.067333     0.004307
NI145   NI        0.700667    0.467333    0.067333     0.004307
NI146   NI        0.200667    0.500667    0.067333     0.004307
NI147   NI        0.234000    0.500667    0.034000     0.004307
NI148   NI        0.234000    0.534000    0.067333     0.004307
NI149   NI        0.267333    0.500667    0.067333     0.004307
NI150   NI        0.267333    0.534000    0.034000     0.004307
NI151   NI        0.300667    0.500667    0.034000     0.004307
NI152   NI        0.300667    0.534000    0.067333     0.004307
NI153   NI        0.334000    0.500667    0.067333     0.004307
NI154   NI        0.334000    0.534000    0.034000     0.004307
NI155   NI        0.367333    0.500667    0.034000     0.004307
NI156   NI        0.367333    0.534000    0.067333     0.004307
NI157   NI        0.400667    0.500667    0.067333     0.004307
NI158   NI        0.400667    0.534000    0.034000     0.004307
NI159   NI        0.434000    0.500667    0.034000     0.004307
NI160   NI        0.434000    0.534000    0.067333     0.004307
NI161   NI        0.467333    0.500667    0.067333     0.004307
NI162   NI        0.467333    0.534000    0.034000     0.004307
NI163   NI        0.500667    0.500667    0.034000     0.004307
NI164   NI        0.500667    0.534000    0.067333     0.004307
NI165   NI        0.534000    0.500667    0.067333     0.004307
NI166   NI        0.534000    0.534000    0.034000     0.004307
NI167   NI        0.567333    0.500667    0.034000     0.004307
NI168   NI        0.567333    0.534000    0.067333     0.004307
NI169   NI        0.600667    0.500667    0.067333     0.004307
NI170   NI        0.600667    0.534000    0.034000     0.004307
NI171   NI        0.634000    0.500667    0.034000     0.004307
NI172   NI        0.634000    0.534000    0.067333     0.004307
NI173   NI        0.667333    0.500667    0.067333     0.004307
NI174   NI        0.200667    0.567333    0.067333     0.004307
NI175   NI        0.234000    0.600667    0.067333     0.004307
NI176   NI        0.267333    0.567333    0.067333     0.004307
NI177   NI        0.300667    0.567333    0.034000     0.004307
NI178   NI        0.300667    0.600667    0.067333     0.004307
NI179   NI        0.334000    0.567333    0.067333     0.004307
NI180   NI        0.334000    0.600667    0.034000     0.004307
NI181   NI        0.367333    0.567333    0.034000     0.004307
NI182   NI        0.367333    0.600667    0.067333     0.004307
NI183   NI        0.400667    0.567333    0.067333     0.004307
NI184   NI        0.400667    0.600667    0.034000     0.004307
NI185   NI        0.434000    0.567333    0.034000     0.004307
NI186   NI        0.434000    0.600667    0.067333     0.004307
NI187   NI        0.467333    0.567333    0.067333     0.004307
NI188   NI        0.467333    0.600667    0.034000     0.004307
NI189   NI        0.500667    0.567333    0.034000     0.004307
NI190   NI        0.500667    0.600667    0.067333     0.004307
NI191   NI        0.534000    0.567333    0.067333     0.004307
NI192   NI        0.534000    0.600667    0.034000     0.004307
NI193   NI        0.567333    0.567333    0.034000     0.004307
NI194   NI        0.567333    0.600667    0.067333     0.004307
NI195   NI        0.600667    0.567333    0.067333     0.004307
NI196   NI        0.634000    0.600667    0.067333     0.004307
NI197   NI        0.667333    0.567333    0.067333     0.004307
NI198   NI        0.267333    0.634000    0.067333     0.004307
NI199   NI        0.300667    0.667333    0.067333     0.004307
NI200   NI        0.334000    0.634000    0.067333     0.004307
NI201   NI        0.367333    0.634000    0.034000     0.004307
NI202   NI        0.367333    0.667333    0.067333     0.004307
NI203   NI        0.400667    0.634000    0.067333     0.004307
NI204   NI        0.434000    0.634000    0.034000     0.004307
NI205   NI        0.434000    0.667333    0.067333     0.004307
NI206   NI        0.467333    0.634000    0.067333     0.004307
NI207   NI        0.500667    0.634000    0.034000     0.004307
NI208   NI        0.500667    0.667333    0.067333     0.004307
NI209   NI        0.534000    0.634000    0.067333     0.004307
NI210   NI        0.567333    0.667333    0.067333     0.004307
NI211   NI        0.600667    0.634000    0.067333     0.004307
NI212   NI        0.400667    0.700667    0.067333     0.004307
NI213   NI        0.467333    0.700667    0.067333     0.004307
NI214   NI        0.300667    0.134000    0.134000     0.004307
NI215   NI        0.334000    0.100667    0.134000     0.004307
NI216   NI        0.334000    0.134000    0.100667     0.004307
NI217   NI        0.367333    0.134000    0.134000     0.004307
NI218   NI        0.400667    0.100667    0.134000     0.004307
NI219   NI        0.400667    0.134000    0.100667     0.004307
NI220   NI        0.434000    0.134000    0.134000     0.004307
NI221   NI        0.467333    0.100667    0.134000     0.004307
NI222   NI        0.467333    0.134000    0.100667     0.004307
NI223   NI        0.500667    0.134000    0.134000     0.004307
NI224   NI        0.534000    0.100667    0.134000     0.004307
NI225   NI        0.534000    0.134000    0.100667     0.004307
NI226   NI        0.567333    0.134000    0.134000     0.004307
NI227   NI        0.234000    0.200667    0.134000     0.004307
NI228   NI        0.267333    0.167333    0.134000     0.004307
NI229   NI        0.267333    0.200667    0.100667     0.004307
NI230   NI        0.300667    0.167333    0.100667     0.004307
NI231   NI        0.300667    0.200667    0.134000     0.004307
NI232   NI        0.334000    0.167333    0.134000     0.004307
NI233   NI        0.334000    0.200667    0.100667     0.004307
NI234   NI        0.367333    0.167333    0.100667     0.004307
NI235   NI        0.367333    0.200667    0.134000     0.004307
NI236   NI        0.400667    0.167333    0.134000     0.004307
NI237   NI        0.400667    0.200667    0.100667     0.004307
NI238   NI        0.434000    0.167333    0.100667     0.004307
NI239   NI        0.434000    0.200667    0.134000     0.004307
NI240   NI        0.467333    0.167333    0.134000     0.004307
NI241   NI        0.467333    0.200667    0.100667     0.004307
NI242   NI        0.500667    0.167333    0.100667     0.004307
NI243   NI        0.500667    0.200667    0.134000     0.004307
NI244   NI        0.534000    0.167333    0.134000     0.004307
NI245   NI        0.534000    0.200667    0.100667     0.004307
NI246   NI        0.567333    0.167333    0.100667     0.004307
NI247   NI        0.567333    0.200667    0.134000     0.004307
NI248   NI        0.600667    0.167333    0.134000     0.004307
NI249   NI        0.600667    0.200667    0.100667     0.004307
NI250   NI        0.634000    0.200667    0.134000     0.004307
NI251   NI        0.167333    0.267333    0.134000     0.004307
NI252   NI        0.200667    0.234000    0.134000     0.004307
NI253   NI        0.200667    0.267333    0.100667     0.004307
NI254   NI        0.234000    0.234000    0.100667     0.004307
NI255   NI        0.234000    0.267333    0.134000     0.004307
NI256   NI        0.267333    0.234000    0.134000     0.004307
NI257   NI        0.267333    0.267333    0.100667     0.004307
NI258   NI        0.300667    0.234000    0.100667     0.004307
NI259   NI        0.300667    0.267333    0.134000     0.004307
NI260   NI        0.334000    0.234000    0.134000     0.004307
NI261   NI        0.334000    0.267333    0.100667     0.004307
NI262   NI        0.367333    0.234000    0.100667     0.004307
NI263   NI        0.367333    0.267333    0.134000     0.004307
NI264   NI        0.400667    0.234000    0.134000     0.004307
NI265   NI        0.400667    0.267333    0.100667     0.004307
NI266   NI        0.434000    0.234000    0.100667     0.004307
NI267   NI        0.434000    0.267333    0.134000     0.004307
NI268   NI        0.467333    0.234000    0.134000     0.004307
NI269   NI        0.467333    0.267333    0.100667     0.004307
NI270   NI        0.500667    0.234000    0.100667     0.004307
NI271   NI        0.500667    0.267333    0.134000     0.004307
NI272   NI        0.534000    0.234000    0.134000     0.004307
NI273   NI        0.534000    0.267333    0.100667     0.004307
NI274   NI        0.567333    0.234000    0.100667     0.004307
NI275   NI        0.567333    0.267333    0.134000     0.004307
NI276   NI        0.600667    0.234000    0.134000     0.004307
NI277   NI        0.600667    0.267333    0.100667     0.004307
NI278   NI        0.634000    0.234000    0.100667     0.004307
NI279   NI        0.634000    0.267333    0.134000     0.004307
NI280   NI        0.667333    0.234000    0.134000     0.004307
NI281   NI        0.667333    0.267333    0.100667     0.004307
NI282   NI        0.700667    0.267333    0.134000     0.004307
NI283   NI        0.100667    0.334000    0.134000     0.004307
NI284   NI        0.134000    0.300667    0.134000     0.004307
NI285   NI        0.134000    0.334000    0.100667     0.004307
NI286   NI        0.167333    0.300667    0.100667     0.004307
NI287   NI        0.167333    0.334000    0.134000     0.004307
NI288   NI        0.200667    0.300667    0.134000     0.004307
NI289   NI        0.200667    0.334000    0.100667     0.004307
NI290   NI        0.234000    0.300667    0.100667     0.004307
NI291   NI        0.234000    0.334000    0.134000     0.004307
NI292   NI        0.267333    0.300667    0.134000     0.004307
NI293   NI        0.267333    0.334000    0.100667     0.004307
NI294   NI        0.300667    0.300667    0.100667     0.004307
NI295   NI        0.300667    0.334000    0.134000     0.004307
NI296   NI        0.334000    0.300667    0.134000     0.004307
NI297   NI        0.334000    0.334000    0.100667     0.004307
NI298   NI        0.367333    0.300667    0.100667     0.004307
NI299   NI        0.367333    0.334000    0.134000     0.004307
NI300   NI        0.400667    0.300667    0.134000     0.004307
NI301   NI        0.400667    0.334000    0.100667     0.004307
NI302   NI        0.434000    0.300667    0.100667     0.004307
CU303   CU        0.434000    0.334000    0.134000     0.006663
NI304   NI        0.467333    0.300667    0.134000     0.004307
NI305   NI        0.467333    0.334000    0.100667     0.004307
NI306   NI        0.500667    0.300667    0.100667     0.004307
NI307   NI        0.500667    0.334000    0.134000     0.004307
NI308   NI        0.534000    0.300667    0.134000     0.004307
NI309   NI        0.534000    0.334000    0.100667     0.004307
NI310   NI        0.567333    0.300667    0.100667     0.004307
NI311   NI        0.567333    0.334000    0.134000     0.004307
NI312   NI        0.600667    0.300667    0.134000     0.004307
NI313   NI        0.600667    0.334000    0.100667     0.004307
NI314   NI        0.634000    0.300667    0.100667     0.004307
NI315   NI        0.634000    0.334000    0.134000     0.004307
NI316   NI        0.667333    0.300667    0.134000     0.004307
NI317   NI        0.667333    0.334000    0.100667     0.004307
NI318   NI        0.700667    0.300667    0.100667     0.004307
NI319   NI        0.700667    0.334000    0.134000     0.004307
NI320   NI        0.734000    0.300667    0.134000     0.004307
NI321   NI        0.734000    0.334000    0.100667     0.004307
NI322   NI        0.767333    0.334000    0.134000     0.004307
NI323   NI        0.100667    0.400667    0.134000     0.004307
NI324   NI        0.134000    0.367333    0.134000     0.004307
NI325   NI        0.134000    0.400667    0.100667     0.004307
NI326   NI        0.167333    0.367333    0.100667     0.004307
NI327   NI        0.167333    0.400667    0.134000     0.004307
NI328   NI        0.200667    0.367333    0.134000     0.004307
NI329   NI        0.200667    0.400667    0.100667     0.004307
NI330   NI        0.234000    0.367333    0.100667     0.004307
NI331   NI        0.234000    0.400667    0.134000     0.004307
NI332   NI        0.267333    0.367333    0.134000     0.004307
NI333   NI        0.267333    0.400667    0.100667     0.004307
NI334   NI        0.300667    0.367333    0.100667     0.004307
NI335   NI        0.300667    0.400667    0.134000     0.004307
NI336   NI        0.334000    0.367333    0.134000     0.004307
NI337   NI        0.334000    0.400667    0.100667     0.004307
NI338   NI        0.367333    0.367333    0.100667     0.004307
CU339   CU        0.367333    0.400667    0.134000     0.006663
CU340   CU        0.400667    0.367333    0.134000     0.006663
NI341   NI        0.400667    0.400667    0.100667     0.004307
NI342   NI        0.434000    0.367333    0.100667     0.004307
CU343   CU        0.434000    0.400667    0.134000     0.006663
CU344   CU        0.467333    0.367333    0.134000     0.006663
NI345   NI        0.467333    0.400667    0.100667     0.004307
NI346   NI        0.500667    0.367333    0.100667     0.004307
CU347   CU        0.500667    0.400667    0.134000     0.006663
NI348   NI        0.534000    0.367333    0.134000     0.004307
NI349   NI        0.534000    0.400667    0.100667     0.004307
NI350   NI        0.567333    0.367333    0.100667     0.004307
NI351   NI        0.567333    0.400667    0.134000     0.004307
NI352   NI        0.600667    0.367333    0.134000     0.004307
NI353   NI        0.600667    0.400667    0.100667     0.004307
NI354   NI        0.634000    0.367333    0.100667     0.004307
NI355   NI        0.634000    0.400667    0.134000     0.004307
NI356   NI        0.667333    0.367333    0.134000     0.004307
NI357   NI        0.667333    0.400667    0.100667     0.004307
NI358   NI        0.700667    0.367333    0.100667     0.004307
NI359   NI        0.700667    0.400667    0.134000     0.004307
NI360   NI        0.734000    0.367333    0.134000     0.004307
NI361   NI        0.734000    0.400667    0.100667     0.004307
NI362   NI        0.767333    0.400667    0.134000     0.004307
NI363   NI        0.100667    0.467333    0.134000     0.004307
NI364   NI        0.134000    0.434000    0.134000     0.004307
NI365   NI        0.134000    0.467333    0.100667     0.004307
NI366   NI        0.167333    0.434000    0.100667     0.004307
NI367   NI        0.167333    0.467333    0.134000     0.004307
NI368   NI        0.200667    0.434000    0.134000     0.004307
NI369   NI        0.200667    0.467333    0.100667     0.004307
NI370   NI        0.234000    0.434000    0.100667     0.004307
NI371   NI        0.234000    0.467333    0.134000     0.004307
NI372   NI        0.267333    0.434000    0.134000     0.004307
NI373   NI        0.267333    0.467333    0.100667     0.004307
NI374   NI        0.300667    0.434000    0.100667     0.004307
NI375   NI        0.300667    0.467333    0.134000     0.004307
CU376   CU        0.334000    0.434000    0.134000     0.006663
NI377   NI        0.334000    0.467333    0.100667     0.004307
NI378   NI        0.367333    0.434000    0.100667     0.004307
CU379   CU        0.367333    0.467333    0.134000     0.006663
CU380   CU        0.400667    0.434000    0.134000     0.006663
NI381   NI        0.400667    0.467333    0.100667     0.004307
NI382   NI        0.434000    0.434000    0.100667     0.004307
CU383   CU        0.434000    0.467333    0.134000     0.006663
CU384   CU        0.467333    0.434000    0.134000     0.006663
NI385   NI        0.467333    0.467333    0.100667     0.004307
NI386   NI        0.500667    0.434000    0.100667     0.004307
CU387   CU        0.500667    0.467333    0.134000     0.006663
CU388   CU        0.534000    0.434000    0.134000     0.006663
NI389   NI        0.534000    0.467333    0.100667     0.004307
NI390   NI        0.567333    0.434000    0.100667     0.004307
NI391   NI        0.567333    0.467333    0.134000     0.004307
NI392   NI        0.600667    0.434000    0.134000     0.004307
NI393   NI        0.600667    0.467333    0.100667     0.004307
NI394   NI        0.634000    0.434000    0.100667     0.004307
NI395   NI        0.634000    0.467333    0.134000     0.004307
NI396   NI        0.667333    0.434000    0.134000     0.004307
NI397   NI        0.667333    0.467333    0.100667     0.004307
NI398   NI        0.700667    0.434000    0.100667     0.004307
NI399   NI        0.700667    0.467333    0.134000     0.004307
NI400   NI        0.734000    0.434000    0.134000     0.004307
NI401   NI        0.734000    0.467333    0.100667     0.004307
NI402   NI        0.767333    0.467333    0.134000     0.004307
NI403   NI        0.100667    0.534000    0.134000     0.004307
NI404   NI        0.134000    0.500667    0.134000     0.004307
NI405   NI        0.134000    0.534000    0.100667     0.004307
NI406   NI        0.167333    0.500667    0.100667     0.004307
NI407   NI        0.167333    0.534000    0.134000     0.004307
NI408   NI        0.200667    0.500667    0.134000     0.004307
NI409   NI        0.200667    0.534000    0.100667     0.004307
NI410   NI        0.234000    0.500667    0.100667     0.004307
NI411   NI        0.234000    0.534000    0.134000     0.004307
NI412   NI        0.267333    0.500667    0.134000     0.004307
NI413   NI        0.267333    0.534000    0.100667     0.004307
NI414   NI        0.300667    0.500667    0.100667     0.004307
NI415   NI        0.300667    0.534000    0.134000     0.004307
NI416   NI        0.334000    0.500667    0.134000     0.004307
NI417   NI        0.334000    0.534000    0.100667     0.004307
NI418   NI        0.367333    0.500667    0.100667     0.004307
NI419   NI        0.367333    0.534000    0.134000     0.004307
CU420   CU        0.400667    0.500667    0.134000     0.006663
NI421   NI        0.400667    0.534000    0.100667     0.004307
NI422   NI        0.434000    0.500667    0.100667     0.004307
CU423   CU        0.434000    0.534000    0.134000     0.006663
CU424   CU        0.467333    0.500667    0.134000     0.006663
NI425   NI        0.467333    0.534000    0.100667     0.004307
NI426   NI        0.500667    0.500667    0.100667     0.004307
NI427   NI        0.500667    0.534000    0.134000     0.004307
NI428   NI        0.534000    0.500667    0.134000     0.004307
NI429   NI        0.534000    0.534000    0.100667     0.004307
NI430   NI        0.567333    0.500667    0.100667     0.004307
NI431   NI        0.567333    0.534000    0.134000     0.004307
NI432   NI        0.600667    0.500667    0.134000     0.004307
NI433   NI        0.600667    0.534000    0.100667     0.004307
NI434   NI        0.634000    0.500667    0.100667     0.004307
NI435   NI        0.634000    0.534000    0.134000     0.004307
NI436   NI        0.667333    0.500667    0.134000     0.004307
NI437   NI        0.667333    0.534000    0.100667     0.004307
NI438   NI        0.700667    0.500667    0.100667     0.004307
NI439   NI        0.700667    0.534000    0.134000     0.004307
NI440   NI        0.734000    0.500667    0.134000     0.004307
NI441   NI        0.734000    0.534000    0.100667     0.004307
NI442   NI        0.767333    0.534000    0.134000     0.004307
NI443   NI        0.134000    0.567333    0.134000     0.004307
NI444   NI        0.167333    0.567333    0.100667     0.004307
NI445   NI        0.167333    0.600667    0.134000     0.004307
NI446   NI        0.200667    0.567333    0.134000     0.004307
NI447   NI        0.200667    0.600667    0.100667     0.004307
NI448   NI        0.234000    0.567333    0.100667     0.004307
NI449   NI        0.234000    0.600667    0.134000     0.004307
NI450   NI        0.267333    0.567333    0.134000     0.004307
NI451   NI        0.267333    0.600667    0.100667     0.004307
NI452   NI        0.300667    0.567333    0.100667     0.004307
NI453   NI        0.300667    0.600667    0.134000     0.004307
NI454   NI        0.334000    0.567333    0.134000     0.004307
NI455   NI        0.334000    0.600667    0.100667     0.004307
NI456   NI        0.367333    0.567333    0.100667     0.004307
NI457   NI        0.367333    0.600667    0.134000     0.004307
NI458   NI        0.400667    0.567333    0.134000     0.004307
NI459   NI        0.400667    0.600667    0.100667     0.004307
NI460   NI        0.434000    0.567333    0.100667     0.004307
NI461   NI        0.434000    0.600667    0.134000     0.004307
NI462   NI        0.467333    0.567333    0.134000     0.004307
NI463   NI        0.467333    0.600667    0.100667     0.004307
NI464   NI        0.500667    0.567333    0.100667     0.004307
NI465   NI        0.500667    0.600667    0.134000     0.004307
NI466   NI        0.534000    0.567333    0.134000     0.004307
NI467   NI        0.534000    0.600667    0.100667     0.004307
NI468   NI        0.567333    0.567333    0.100667     0.004307
NI469   NI        0.567333    0.600667    0.134000     0.004307
NI470   NI        0.600667    0.567333    0.134000     0.004307
NI471   NI        0.600667    0.600667    0.100667     0.004307
NI472   NI        0.634000    0.567333    0.100667     0.004307
NI473   NI        0.634000    0.600667    0.134000     0.004307
NI474   NI        0.667333    0.567333    0.134000     0.004307
NI475   NI        0.667333    0.600667    0.100667     0.004307
NI476   NI        0.700667    0.567333    0.100667     0.004307
NI477   NI        0.700667    0.600667    0.134000     0.004307
NI478   NI        0.734000    0.567333    0.134000     0.004307
NI479   NI        0.200667    0.634000    0.134000     0.004307
NI480   NI        0.234000    0.634000    0.100667     0.004307
NI481   NI        0.234000    0.667333    0.134000     0.004307
NI482   NI        0.267333    0.634000    0.134000     0.004307
NI483   NI        0.267333    0.667333    0.100667     0.004307
NI484   NI        0.300667    0.634000    0.100667     0.004307
NI485   NI        0.300667    0.667333    0.134000     0.004307
NI486   NI        0.334000    0.634000    0.134000     0.004307
NI487   NI        0.334000    0.667333    0.100667     0.004307
NI488   NI        0.367333    0.634000    0.100667     0.004307
NI489   NI        0.367333    0.667333    0.134000     0.004307
NI490   NI        0.400667    0.634000    0.134000     0.004307
NI491   NI        0.400667    0.667333    0.100667     0.004307
NI492   NI        0.434000    0.634000    0.100667     0.004307
NI493   NI        0.434000    0.667333    0.134000     0.004307
NI494   NI        0.467333    0.634000    0.134000     0.004307
NI495   NI        0.467333    0.667333    0.100667     0.004307
NI496   NI        0.500667    0.634000    0.100667     0.004307
NI497   NI        0.500667    0.667333    0.134000     0.004307
NI498   NI        0.534000    0.634000    0.134000     0.004307
NI499   NI        0.534000    0.667333    0.100667     0.004307
NI500   NI        0.567333    0.634000    0.100667     0.004307
NI501   NI        0.567333    0.667333    0.134000     0.004307
NI502   NI        0.600667    0.634000    0.134000     0.004307
NI503   NI        0.600667    0.667333    0.100667     0.004307
NI504   NI        0.634000    0.634000    0.100667     0.004307
NI505   NI        0.634000    0.667333    0.134000     0.004307
NI506   NI        0.667333    0.634000    0.134000     0.004307
NI507   NI        0.267333    0.700667    0.134000     0.004307
NI508   NI        0.300667    0.700667    0.100667     0.004307
NI509   NI        0.300667    0.734000    0.134000     0.004307
NI510   NI        0.334000    0.700667    0.134000     0.004307
NI511   NI        0.334000    0.734000    0.100667     0.004307
NI512   NI        0.367333    0.700667    0.100667     0.004307
NI513   NI        0.367333    0.734000    0.134000     0.004307
NI514   NI        0.400667    0.700667    0.134000     0.004307
NI515   NI        0.400667    0.734000    0.100667     0.004307
NI516   NI        0.434000    0.700667    0.100667     0.004307
NI517   NI        0.434000    0.734000    0.134000     0.004307
NI518   NI        0.467333    0.700667    0.134000     0.004307
NI519   NI        0.467333    0.734000    0.100667     0.004307
NI520   NI        0.500667    0.700667    0.100667     0.004307
NI521   NI        0.500667    0.734000    0.134000     0.004307
NI522   NI        0.534000    0.700667    0.134000     0.004307
NI523   NI        0.534000    0.734000    0.100667     0.004307
NI524   NI        0.567333    0.700667    0.100667     0.004307
NI525   NI        0.567333    0.734000    0.134000     0.004307
NI526   NI        0.600667    0.700667    0.134000     0.004307
NI527   NI        0.334000    0.767333    0.134000     0.004307
NI528   NI        0.400667    0.767333    0.134000     0.004307
NI529   NI        0.467333    0.767333    0.134000     0.004307
NI530   NI        0.534000    0.767333    0.134000     0.004307
NI531   NI        0.300667    0.067333    0.200667     0.004307
NI532   NI        0.367333    0.067333    0.200667     0.004307
NI533   NI        0.400667    0.067333    0.167333     0.004307
NI534   NI        0.434000    0.067333    0.200667     0.004307
NI535   NI        0.467333    0.067333    0.167333     0.004307
NI536   NI        0.500667    0.067333    0.200667     0.004307
NI537   NI        0.567333    0.067333    0.200667     0.004307
NI538   NI        0.234000    0.134000    0.200667     0.004307
NI539   NI        0.267333    0.100667    0.200667     0.004307
NI540   NI        0.267333    0.134000    0.167333     0.004307
NI541   NI        0.300667    0.100667    0.167333     0.004307
NI542   NI        0.300667    0.134000    0.200667     0.004307
NI543   NI        0.334000    0.100667    0.200667     0.004307
NI544   NI        0.334000    0.134000    0.167333     0.004307
NI545   NI        0.367333    0.100667    0.167333     0.004307
NI546   NI        0.367333    0.134000    0.200667     0.004307
NI547   NI        0.400667    0.100667    0.200667     0.004307
NI548   NI        0.400667    0.134000    0.167333     0.004307
NI549   NI        0.434000    0.100667    0.167333     0.004307
NI550   NI        0.434000    0.134000    0.200667     0.004307
NI551   NI        0.467333    0.100667    0.200667     0.004307
NI552   NI        0.467333    0.134000    0.167333     0.004307
NI553   NI        0.500667    0.100667    0.167333     0.004307
NI554   NI        0.500667    0.134000    0.200667     0.004307
NI555   NI        0.534000    0.100667    0.200667     0.004307
NI556   NI        0.534000    0.134000    0.167333     0.004307
NI557   NI        0.567333    0.100667    0.167333     0.004307
NI558   NI        0.567333    0.134000    0.200667     0.004307
NI559   NI        0.600667    0.100667    0.200667     0.004307
NI560   NI        0.600667    0.134000    0.167333     0.004307
NI561   NI        0.634000    0.134000    0.200667     0.004307
NI562   NI        0.167333    0.200667    0.200667     0.004307
NI563   NI        0.200667    0.167333    0.200667     0.004307
NI564   NI        0.200667    0.200667    0.167333     0.004307
NI565   NI        0.234000    0.167333    0.167333     0.004307
NI566   NI        0.234000    0.200667    0.200667     0.004307
NI567   NI        0.267333    0.167333    0.200667     0.004307
NI568   NI        0.267333    0.200667    0.167333     0.004307
NI569   NI        0.300667    0.167333    0.167333     0.004307
NI570   NI        0.300667    0.200667    0.200667     0.004307
NI571   NI        0.334000    0.167333    0.200667     0.004307
NI572   NI        0.334000    0.200667    0.167333     0.004307
NI573   NI        0.367333    0.167333    0.167333     0.004307
NI574   NI        0.367333    0.200667    0.200667     0.004307
NI575   NI        0.400667    0.167333    0.200667     0.004307
NI576   NI        0.400667    0.200667    0.167333     0.004307
NI577   NI        0.434000    0.167333    0.167333     0.004307
NI578   NI        0.434000    0.200667    0.200667     0.004307
NI579   NI        0.467333    0.167333    0.200667     0.004307
NI580   NI        0.467333    0.200667    0.167333     0.004307
NI581   NI        0.500667    0.167333    0.167333     0.004307
NI582   NI        0.500667    0.200667    0.200667     0.004307
NI583   NI        0.534000    0.167333    0.200667     0.004307
NI584   NI        0.534000    0.200667    0.167333     0.004307
NI585   NI        0.567333    0.167333    0.167333     0.004307
NI586   NI        0.567333    0.200667    0.200667     0.004307
NI587   NI        0.600667    0.167333    0.200667     0.004307
NI588   NI        0.600667    0.200667    0.167333     0.004307
NI589   NI        0.634000    0.167333    0.167333     0.004307
NI590   NI        0.634000    0.200667    0.200667     0.004307
NI591   NI        0.667333    0.167333    0.200667     0.004307
NI592   NI        0.667333    0.200667    0.167333     0.004307
NI593   NI        0.700667    0.200667    0.200667     0.004307
NI594   NI        0.100667    0.267333    0.200667     0.004307
NI595   NI        0.134000    0.234000    0.200667     0.004307
NI596   NI        0.134000    0.267333    0.167333     0.004307
NI597   NI        0.167333    0.234000    0.167333     0.004307
NI598   NI        0.167333    0.267333    0.200667     0.004307
NI599   NI        0.200667    0.234000    0.200667     0.004307
NI600   NI        0.200667    0.267333    0.167333     0.004307
NI601   NI        0.234000    0.234000    0.167333     0.004307
NI602   NI        0.234000    0.267333    0.200667     0.004307
NI603   NI        0.267333    0.234000    0.200667     0.004307
NI604   NI        0.267333    0.267333    0.167333     0.004307
NI605   NI        0.300667    0.234000    0.167333     0.004307
CU606   CU        0.300667    0.267333    0.200667     0.006663
NI607   NI        0.334000    0.234000    0.200667     0.004307
NI608   NI        0.334000    0.267333    0.167333     0.004307
NI609   NI        0.367333    0.234000    0.167333     0.004307
CU610   CU        0.367333    0.267333    0.200667     0.006663
CU611   CU        0.400667    0.234000    0.200667     0.006663
CU612   CU        0.400667    0.267333    0.167333     0.006663
NI613   NI        0.434000    0.234000    0.167333     0.004307
CU614   CU        0.434000    0.267333    0.200667     0.006663
CU615   CU        0.467333    0.234000    0.200667     0.006663
CU616   CU        0.467333    0.267333    0.167333     0.006663
NI617   NI        0.500667    0.234000    0.167333     0.004307
CU618   CU        0.500667    0.267333    0.200667     0.006663
NI619   NI        0.534000    0.234000    0.200667     0.004307
NI620   NI        0.534000    0.267333    0.167333     0.004307
NI621   NI        0.567333    0.234000    0.167333     0.004307
CU622   CU        0.567333    0.267333    0.200667     0.006663
NI623   NI        0.600667    0.234000    0.200667     0.004307
NI624   NI        0.600667    0.267333    0.167333     0.004307
NI625   NI        0.634000    0.234000    0.167333     0.004307
NI626   NI        0.634000    0.267333    0.200667     0.004307
NI627   NI        0.667333    0.234000    0.200667     0.004307
NI628   NI        0.667333    0.267333    0.167333     0.004307
NI629   NI        0.700667    0.234000    0.167333     0.004307
NI630   NI        0.700667    0.267333    0.200667     0.004307
NI631   NI        0.734000    0.234000    0.200667     0.004307
NI632   NI        0.734000    0.267333    0.167333     0.004307
NI633   NI        0.767333    0.267333    0.200667     0.004307
NI634   NI        0.067333    0.300667    0.200667     0.004307
NI635   NI        0.100667    0.300667    0.167333     0.004307
NI636   NI        0.100667    0.334000    0.200667     0.004307
NI637   NI        0.134000    0.300667    0.200667     0.004307
NI638   NI        0.134000    0.334000    0.167333     0.004307
NI639   NI        0.167333    0.300667    0.167333     0.004307
NI640   NI        0.167333    0.334000    0.200667     0.004307
NI641   NI        0.200667    0.300667    0.200667     0.004307
NI642   NI        0.200667    0.334000    0.167333     0.004307
NI643   NI        0.234000    0.300667    0.167333     0.004307
NI644   NI        0.234000    0.334000    0.200667     0.004307
CU645   CU        0.267333    0.300667    0.200667     0.006663
NI646   NI        0.267333    0.334000    0.167333     0.004307
NI647   NI        0.300667    0.300667    0.167333     0.004307
CU648   CU        0.300667    0.334000    0.200667     0.006663
CU649   CU        0.334000    0.300667    0.200667     0.006663
CU650   CU        0.334000    0.334000    0.167333     0.006663
CU651   CU        0.367333    0.300667    0.167333     0.006663
CU652   CU        0.367333    0.334000    0.200667     0.006663
CU653   CU        0.400667    0.300667    0.200667     0.006663
CU654   CU        0.400667    0.334000    0.167333     0.006663
CU655   CU        0.434000    0.300667    0.167333     0.006663
CU656   CU        0.434000    0.334000    0.200667     0.006663
CU657   CU        0.467333    0.300667    0.200667     0.006663
CU658   CU        0.467333    0.334000    0.167333     0.006663
CU659   CU        0.500667    0.300667    0.167333     0.006663
CU660   CU        0.500667    0.334000    0.200667     0.006663
CU661   CU        0.534000    0.300667    0.200667     0.006663
CU662   CU        0.534000    0.334000    0.167333     0.006663
NI663   NI        0.567333    0.300667    0.167333     0.004307
CU664   CU        0.567333    0.334000    0.200667     0.006663
CU665   CU        0.600667    0.300667    0.200667     0.006663
NI666   NI        0.600667    0.334000    0.167333     0.004307
NI667   NI        0.634000    0.300667    0.167333     0.004307
NI668   NI        0.634000    0.334000    0.200667     0.004307
NI669   NI        0.667333    0.300667    0.200667     0.004307
NI670   NI        0.667333    0.334000    0.167333     0.004307
NI671   NI        0.700667    0.300667    0.167333     0.004307
NI672   NI        0.700667    0.334000    0.200667     0.004307
NI673   NI        0.734000    0.300667    0.200667     0.004307
NI674   NI        0.734000    0.334000    0.167333     0.004307
NI675   NI        0.767333    0.300667    0.167333     0.004307
NI676   NI        0.767333    0.334000    0.200667     0.004307
NI677   NI        0.800667    0.300667    0.200667     0.004307
NI678   NI        0.067333    0.367333    0.200667     0.004307
NI679   NI        0.067333    0.400667    0.167333     0.004307
NI680   NI        0.100667    0.367333    0.167333     0.004307
NI681   NI        0.100667    0.400667    0.200667     0.004307
NI682   NI        0.134000    0.367333    0.200667     0.004307
NI683   NI        0.134000    0.400667    0.167333     0.004307
NI684   NI        0.167333    0.367333    0.167333     0.004307
NI685   NI        0.167333    0.400667    0.200667     0.004307
NI686   NI        0.200667    0.367333    0.200667     0.004307
NI687   NI        0.200667    0.400667    0.167333     0.004307
NI688   NI        0.234000    0.367333    0.167333     0.004307
CU689   CU        0.234000    0.400667    0.200667     0.006663
CU690   CU        0.267333    0.367333    0.200667     0.006663
CU691   CU        0.267333    0.400667    0.167333     0.006663
CU692   CU        0.300667    0.367333    0.167333     0.006663
CU693   CU        0.300667    0.400667    0.200667     0.006663
CU694   CU        0.334000    0.367333    0.200667     0.006663
CU695   CU        0.334000    0.400667    0.167333     0.006663
CU696   CU        0.367333    0.367333    0.167333     0.006663
CU697   CU        0.367333    0.400667    0.200667     0.006663
CU698   CU        0.400667    0.367333    0.200667     0.006663
CU699   CU        0.400667    0.400667    0.167333     0.006663
CU700   CU        0.434000    0.367333    0.167333     0.006663
CU701   CU        0.434000    0.400667    0.200667     0.006663
CU702   CU        0.467333    0.367333    0.200667     0.006663
CU703   CU        0.467333    0.400667    0.167333     0.006663
CU704   CU        0.500667    0.367333    0.167333     0.006663
CU705   CU        0.500667    0.400667    0.200667     0.006663
CU706   CU        0.534000    0.367333    0.200667     0.006663
CU707   CU        0.534000    0.400667    0.167333     0.006663
CU708   CU        0.567333    0.367333    0.167333     0.006663
CU709   CU        0.567333    0.400667    0.200667     0.006663
CU710   CU        0.600667    0.367333    0.200667     0.006663
CU711   CU        0.600667    0.400667    0.167333     0.006663
NI712   NI        0.634000    0.367333    0.167333     0.004307
CU713   CU        0.634000    0.400667    0.200667     0.006663
NI714   NI        0.667333    0.367333    0.200667     0.004307
NI715   NI        0.667333    0.400667    0.167333     0.004307
NI716   NI        0.700667    0.367333    0.167333     0.004307
NI717   NI        0.700667    0.400667    0.200667     0.004307
NI718   NI        0.734000    0.367333    0.200667     0.004307
NI719   NI        0.734000    0.400667    0.167333     0.004307
NI720   NI        0.767333    0.367333    0.167333     0.004307
NI721   NI        0.767333    0.400667    0.200667     0.004307
NI722   NI        0.800667    0.367333    0.200667     0.004307
NI723   NI        0.800667    0.400667    0.167333     0.004307
NI724   NI        0.067333    0.434000    0.200667     0.004307
NI725   NI        0.067333    0.467333    0.167333     0.004307
NI726   NI        0.100667    0.434000    0.167333     0.004307
NI727   NI        0.100667    0.467333    0.200667     0.004307
NI728   NI        0.134000    0.434000    0.200667     0.004307
NI729   NI        0.134000    0.467333    0.167333     0.004307
NI730   NI        0.167333    0.434000    0.167333     0.004307
NI731   NI        0.167333    0.467333    0.200667     0.004307
NI732   NI        0.200667    0.434000    0.200667     0.004307
NI733   NI        0.200667    0.467333    0.167333     0.004307
NI734   NI        0.234000    0.434000    0.167333     0.004307
CU735   CU        0.234000    0.467333    0.200667     0.006663
CU736   CU        0.267333    0.434000    0.200667     0.006663
CU737   CU        0.267333    0.467333    0.167333     0.006663
CU738   CU        0.300667    0.434000    0.167333     0.006663
CU739   CU        0.300667    0.467333    0.200667     0.006663
CU740   CU        0.334000    0.434000    0.200667     0.006663
CU741   CU        0.334000    0.467333    0.167333     0.006663
CU742   CU        0.367333    0.434000    0.167333     0.006663
CU743   CU        0.367333    0.467333    0.200667     0.006663
CU744   CU        0.400667    0.434000    0.200667     0.006663
CU745   CU        0.400667    0.467333    0.167333     0.006663
CU746   CU        0.434000    0.434000    0.167333     0.006663
CU747   CU        0.434000    0.467333    0.200667     0.006663
CU748   CU        0.467333    0.434000    0.200667     0.006663
CU749   CU        0.467333    0.467333    0.167333     0.006663
CU750   CU        0.500667    0.434000    0.167333     0.006663
CU751   CU        0.500667    0.467333    0.200667     0.006663
CU752   CU        0.534000    0.434000    0.200667     0.006663
CU753   CU        0.534000    0.467333    0.167333     0.006663
CU754   CU        0.567333    0.434000    0.167333     0.006663
CU755   CU        0.567333    0.467333    0.200667     0.006663
CU756   CU        0.600667    0.434000    0.200667     0.006663
CU757   CU        0.600667    0.467333    0.167333     0.006663
NI758   NI        0.634000    0.434000    0.167333     0.004307
CU759   CU        0.634000    0.467333    0.200667     0.006663
NI760   NI        0.667333    0.434000    0.200667     0.004307
NI761   NI        0.667333    0.467333    0.167333     0.004307
NI762   NI        0.700667    0.434000    0.167333     0.004307
NI763   NI        0.700667    0.467333    0.200667     0.004307
NI764   NI        0.734000    0.434000    0.200667     0.004307
NI765   NI        0.734000    0.467333    0.167333     0.004307
NI766   NI        0.767333    0.434000    0.167333     0.004307
NI767   NI        0.767333    0.467333    0.200667     0.004307
NI768   NI        0.800667    0.434000    0.200667     0.004307
NI769   NI        0.800667    0.467333    0.167333     0.004307
NI770   NI        0.067333    0.500667    0.200667     0.004307
NI771   NI        0.100667    0.500667    0.167333     0.004307
NI772   NI        0.100667    0.534000    0.200667     0.004307
NI773   NI        0.134000    0.500667    0.200667     0.004307
NI774   NI        0.134000    0.534000    0.167333     0.004307
NI775   NI        0.167333    0.500667    0.167333     0.004307
NI776   NI        0.167333    0.534000    0.200667     0.004307
NI777   NI        0.200667    0.500667    0.200667     0.004307
NI778   NI        0.200667    0.534000    0.167333     0.004307
NI779   NI        0.234000    0.500667    0.167333     0.004307
NI780   NI        0.234000    0.534000    0.200667     0.004307
CU781   CU        0.267333    0.500667    0.200667     0.006663
NI782   NI        0.267333    0.534000    0.167333     0.004307
CU783   CU        0.300667    0.500667    0.167333     0.006663
CU784   CU        0.300667    0.534000    0.200667     0.006663
CU785   CU        0.334000    0.500667    0.200667     0.006663
CU786   CU        0.334000    0.534000    0.167333     0.006663
CU787   CU        0.367333    0.500667    0.167333     0.006663
CU788   CU        0.367333    0.534000    0.200667     0.006663
CU789   CU        0.400667    0.500667    0.200667     0.006663
CU790   CU        0.400667    0.534000    0.167333     0.006663
CU791   CU        0.434000    0.500667    0.167333     0.006663
CU792   CU        0.434000    0.534000    0.200667     0.006663
CU793   CU        0.467333    0.500667    0.200667     0.006663
CU794   CU        0.467333    0.534000    0.167333     0.006663
CU795   CU        0.500667    0.500667    0.167333     0.006663
CU796   CU        0.500667    0.534000    0.200667     0.006663
CU797   CU        0.534000    0.500667    0.200667     0.006663
CU798   CU        0.534000    0.534000    0.167333     0.006663
CU799   CU        0.567333    0.500667    0.167333     0.006663
CU800   CU        0.567333    0.534000    0.200667     0.006663
CU801   CU        0.600667    0.500667    0.200667     0.006663
NI802   NI        0.600667    0.534000    0.167333     0.004307
NI803   NI        0.634000    0.500667    0.167333     0.004307
NI804   NI        0.634000    0.534000    0.200667     0.004307
NI805   NI        0.667333    0.500667    0.200667     0.004307
NI806   NI        0.667333    0.534000    0.167333     0.004307
NI807   NI        0.700667    0.500667    0.167333     0.004307
NI808   NI        0.700667    0.534000    0.200667     0.004307
NI809   NI        0.734000    0.500667    0.200667     0.004307
NI810   NI        0.734000    0.534000    0.167333     0.004307
NI811   NI        0.767333    0.500667    0.167333     0.004307
NI812   NI        0.767333    0.534000    0.200667     0.004307
NI813   NI        0.800667    0.500667    0.200667     0.004307
NI814   NI        0.067333    0.567333    0.200667     0.004307
NI815   NI        0.100667    0.567333    0.167333     0.004307
NI816   NI        0.100667    0.600667    0.200667     0.004307
NI817   NI        0.134000    0.567333    0.200667     0.004307
NI818   NI        0.134000    0.600667    0.167333     0.004307
NI819   NI        0.167333    0.567333    0.167333     0.004307
NI820   NI        0.167333    0.600667    0.200667     0.004307
NI821   NI        0.200667    0.567333    0.200667     0.004307
NI822   NI        0.200667    0.600667    0.167333     0.004307
NI823   NI        0.234000    0.567333    0.167333     0.004307
NI824   NI        0.234000    0.600667    0.200667     0.004307
CU825   CU        0.267333    0.567333    0.200667     0.006663
NI826   NI        0.267333    0.600667    0.167333     0.004307
NI827   NI        0.300667    0.567333    0.167333     0.004307
CU828   CU        0.300667    0.600667    0.200667     0.006663
CU829   CU        0.334000    0.567333    0.200667     0.006663
NI830   NI        0.334000    0.600667    0.167333     0.004307
CU831   CU        0.367333    0.567333    0.167333     0.006663
CU832   CU        0.367333    0.600667    0.200667     0.006663
CU833   CU        0.400667    0.567333    0.200667     0.006663
CU834   CU        0.400667    0.600667    0.167333     0.006663
CU835   CU        0.434000    0.567333    0.167333     0.006663
CU836   CU        0.434000    0.600667    0.200667     0.006663
CU837   CU        0.467333    0.567333    0.200667     0.006663
CU838   CU        0.467333    0.600667    0.167333     0.006663
CU839   CU        0.500667    0.567333    0.167333     0.006663
CU840   CU        0.500667    0.600667    0.200667     0.006663
CU841   CU        0.534000    0.567333    0.200667     0.006663
NI842   NI        0.534000    0.600667    0.167333     0.004307
NI843   NI        0.567333    0.567333    0.167333     0.004307
CU844   CU        0.567333    0.600667    0.200667     0.006663
CU845   CU        0.600667    0.567333    0.200667     0.006663
NI846   NI        0.600667    0.600667    0.167333     0.004307
NI847   NI        0.634000    0.567333    0.167333     0.004307
NI848   NI        0.634000    0.600667    0.200667     0.004307
NI849   NI        0.667333    0.567333    0.200667     0.004307
NI850   NI        0.667333    0.600667    0.167333     0.004307
NI851   NI        0.700667    0.567333    0.167333     0.004307
NI852   NI        0.700667    0.600667    0.200667     0.004307
NI853   NI        0.734000    0.567333    0.200667     0.004307
NI854   NI        0.734000    0.600667    0.167333     0.004307
NI855   NI        0.767333    0.567333    0.167333     0.004307
NI856   NI        0.767333    0.600667    0.200667     0.004307
NI857   NI        0.800667    0.567333    0.200667     0.004307
NI858   NI        0.134000    0.634000    0.200667     0.004307
NI859   NI        0.167333    0.634000    0.167333     0.004307
NI860   NI        0.167333    0.667333    0.200667     0.004307
NI861   NI        0.200667    0.634000    0.200667     0.004307
NI862   NI        0.200667    0.667333    0.167333     0.004307
NI863   NI        0.234000    0.634000    0.167333     0.004307
NI864   NI        0.234000    0.667333    0.200667     0.004307
NI865   NI        0.267333    0.634000    0.200667     0.004307
NI866   NI        0.267333    0.667333    0.167333     0.004307
NI867   NI        0.300667    0.634000    0.167333     0.004307
NI868   NI        0.300667    0.667333    0.200667     0.004307
NI869   NI        0.334000    0.634000    0.200667     0.004307
NI870   NI        0.334000    0.667333    0.167333     0.004307
NI871   NI        0.367333    0.634000    0.167333     0.004307
NI872   NI        0.367333    0.667333    0.200667     0.004307
CU873   CU        0.400667    0.634000    0.200667     0.006663
NI874   NI        0.400667    0.667333    0.167333     0.004307
NI875   NI        0.434000    0.634000    0.167333     0.004307
NI876   NI        0.434000    0.667333    0.200667     0.004307
CU877   CU        0.467333    0.634000    0.200667     0.006663
NI878   NI        0.467333    0.667333    0.167333     0.004307
NI879   NI        0.500667    0.634000    0.167333     0.004307
NI880   NI        0.500667    0.667333    0.200667     0.004307
NI881   NI        0.534000    0.634000    0.200667     0.004307
NI882   NI        0.534000    0.667333    0.167333     0.004307
NI883   NI        0.567333    0.634000    0.167333     0.004307
NI884   NI        0.567333    0.667333    0.200667     0.004307
NI885   NI        0.600667    0.634000    0.200667     0.004307
NI886   NI        0.600667    0.667333    0.167333     0.004307
NI887   NI        0.634000    0.634000    0.167333     0.004307
NI888   NI        0.634000    0.667333    0.200667     0.004307
NI889   NI        0.667333    0.634000    0.200667     0.004307
NI890   NI        0.667333    0.667333    0.167333     0.004307
NI891   NI        0.700667    0.634000    0.167333     0.004307
NI892   NI        0.700667    0.667333    0.200667     0.004307
NI893   NI        0.734000    0.634000    0.200667     0.004307
NI894   NI        0.200667    0.700667    0.200667     0.004307
NI895   NI        0.234000    0.700667    0.167333     0.004307
NI896   NI        0.234000    0.734000    0.200667     0.004307
NI897   NI        0.267333    0.700667    0.200667     0.004307
NI898   NI        0.267333    0.734000    0.167333     0.004307
NI899   NI        0.300667    0.700667    0.167333     0.004307
NI900   NI        0.300667    0.734000    0.200667     0.004307
NI901   NI        0.334000    0.700667    0.200667     0.004307
NI902   NI        0.334000    0.734000    0.167333     0.004307
NI903   NI        0.367333    0.700667    0.167333     0.004307
NI904   NI        0.367333    0.734000    0.200667     0.004307
NI905   NI        0.400667    0.700667    0.200667     0.004307
NI906   NI        0.400667    0.734000    0.167333     0.004307
NI907   NI        0.434000    0.700667    0.167333     0.004307
NI908   NI        0.434000    0.734000    0.200667     0.004307
NI909   NI        0.467333    0.700667    0.200667     0.004307
NI910   NI        0.467333    0.734000    0.167333     0.004307
NI911   NI        0.500667    0.700667    0.167333     0.004307
NI912   NI        0.500667    0.734000    0.200667     0.004307
NI913   NI        0.534000    0.700667    0.200667     0.004307
NI914   NI        0.534000    0.734000    0.167333     0.004307
NI915   NI        0.567333    0.700667    0.167333     0.004307
NI916   NI        0.567333    0.734000    0.200667     0.004307
NI917   NI        0.600667    0.700667    0.200667     0.004307
NI918   NI        0.600667    0.734000    0.167333     0.004307
NI919   NI        0.634000    0.700667    0.167333     0.004307
NI920   NI        0.634000    0.734000    0.200667     0.004307
NI921   NI        0.667333    0.700667    0.200667     0.004307
NI922   NI        0.267333    0.767333    0.200667     0.004307
NI923   NI        0.300667    0.767333    0.167333     0.004307
NI924   NI        0.300667    0.800667    0.200667     0.004307
NI925   NI        0.334000    0.767333    0.200667     0.004307
NI926   NI        0.367333    0.767333    0.167333     0.004307
NI927   NI        0.367333    0.800667    0.200667     0.004307
NI928   NI        0.400667    0.767333    0.200667     0.004307
NI929   NI        0.400667    0.800667    0.167333     0.004307
NI930   NI        0.434000    0.767333    0.167333     0.004307
NI931   NI        0.434000    0.800667    0.200667     0.004307
NI932   NI        0.467333    0.767333    0.200667     0.004307
NI933   NI        0.467333    0.800667    0.167333     0.004307
NI934   NI        0.500667    0.767333    0.167333     0.004307
NI935   NI        0.500667    0.800667    0.200667     0.004307
NI936   NI        0.534000    0.767333    0.200667     0.004307
NI937   NI        0.567333    0.767333    0.167333     0.004307
NI938   NI        0.567333    0.800667    0.200667     0.004307
NI939   NI        0.600667    0.767333    0.200667     0.004307
NI940   NI        0.234000    0.067333    0.267333     0.004307
NI941   NI        0.267333    0.067333    0.234000     0.004307
NI942   NI        0.300667    0.067333    0.267333     0.004307
NI943   NI        0.334000    0.034000    0.267333     0.004307
NI944   NI        0.334000    0.067333    0.234000     0.004307
NI945   NI        0.367333    0.034000    0.234000     0.004307
NI946   NI        0.367333    0.067333    0.267333     0.004307
NI947   NI        0.400667    0.034000    0.267333     0.004307
NI948   NI        0.400667    0.067333    0.234000     0.004307
NI949   NI        0.434000    0.034000    0.234000     0.004307
NI950   NI        0.434000    0.067333    0.267333     0.004307
NI951   NI        0.467333    0.034000    0.267333     0.004307
NI952   NI        0.467333    0.067333    0.234000     0.004307
NI953   NI        0.500667    0.034000    0.234000     0.004307
NI954   NI        0.500667    0.067333    0.267333     0.004307
NI955   NI        0.534000    0.034000    0.267333     0.004307
NI956   NI        0.534000    0.067333    0.234000     0.004307
NI957   NI        0.567333    0.067333    0.267333     0.004307
NI958   NI        0.600667    0.067333    0.234000     0.004307
NI959   NI        0.634000    0.067333    0.267333     0.004307
NI960   NI        0.167333    0.134000    0.267333     0.004307
NI961   NI        0.200667    0.100667    0.267333     0.004307
NI962   NI        0.200667    0.134000    0.234000     0.004307
NI963   NI        0.234000    0.100667    0.234000     0.004307
NI964   NI        0.234000    0.134000    0.267333     0.004307
NI965   NI        0.267333    0.100667    0.267333     0.004307
NI966   NI        0.267333    0.134000    0.234000     0.004307
NI967   NI        0.300667    0.100667    0.234000     0.004307
NI968   NI        0.300667    0.134000    0.267333     0.004307
NI969   NI        0.334000    0.100667    0.267333     0.004307
NI970   NI        0.334000    0.134000    0.234000     0.004307
NI971   NI        0.367333    0.100667    0.234000     0.004307
NI972   NI        0.367333    0.134000    0.267333     0.004307
NI973   NI        0.400667    0.100667    0.267333     0.004307
NI974   NI        0.400667    0.134000    0.234000     0.004307
NI975   NI        0.434000    0.100667    0.234000     0.004307
NI976   NI        0.434000    0.134000    0.267333     0.004307
NI977   NI        0.467333    0.100667    0.267333     0.004307
NI978   NI        0.467333    0.134000    0.234000     0.004307
NI979   NI        0.500667    0.100667    0.234000     0.004307
NI980   NI        0.500667    0.134000    0.267333     0.004307
NI981   NI        0.534000    0.100667    0.267333     0.004307
NI982   NI        0.534000    0.134000    0.234000     0.004307
NI983   NI        0.567333    0.100667    0.234000     0.004307
NI984   NI        0.567333    0.134000    0.267333     0.004307
NI985   NI        0.600667    0.100667    0.267333     0.004307
NI986   NI        0.600667    0.134000    0.234000     0.004307
NI987   NI        0.634000    0.100667    0.234000     0.004307
NI988   NI        0.634000    0.134000    0.267333     0.004307
NI989   NI        0.667333    0.100667    0.267333     0.004307
NI990   NI        0.667333    0.134000    0.234000     0.004307
NI991   NI        0.700667    0.134000    0.267333     0.004307
NI992   NI        0.100667    0.200667    0.267333     0.004307
NI993   NI        0.134000    0.167333    0.267333     0.004307
NI994   NI        0.134000    0.200667    0.234000     0.004307
NI995   NI        0.167333    0.167333    0.234000     0.004307
NI996   NI        0.167333    0.200667    0.267333     0.004307
NI997   NI        0.200667    0.167333    0.267333     0.004307
NI998   NI        0.200667    0.200667    0.234000     0.004307
NI999   NI        0.234000    0.167333    0.234000     0.004307
NI1000   NI        0.234000    0.200667    0.267333     0.004307
NI1001   NI        0.267333    0.167333    0.267333     0.004307
NI1002   NI        0.267333    0.200667    0.234000     0.004307
NI1003   NI        0.300667    0.167333    0.234000     0.004307
CU1004   CU        0.300667    0.200667    0.267333     0.006663
NI1005   NI        0.334000    0.167333    0.267333     0.004307
NI1006   NI        0.334000    0.200667    0.234000     0.004307
NI1007   NI        0.367333    0.167333    0.234000     0.004307
CU1008   CU        0.367333    0.200667    0.267333     0.006663
CU1009   CU        0.400667    0.167333    0.267333     0.006663
CU1010   CU        0.400667    0.200667    0.234000     0.006663
NI1011   NI        0.434000    0.167333    0.234000     0.004307
CU1012   CU        0.434000    0.200667    0.267333     0.006663
CU1013   CU        0.467333    0.167333    0.267333     0.006663
CU1014   CU        0.467333    0.200667    0.234000     0.006663
NI1015   NI        0.500667    0.167333    0.234000     0.004307
CU1016   CU        0.500667    0.200667    0.267333     0.006663
NI1017   NI        0.534000    0.167333    0.267333     0.004307
NI1018   NI        0.534000    0.200667    0.234000     0.004307
NI1019   NI        0.567333    0.167333    0.234000     0.004307
CU1020   CU        0.567333    0.200667    0.267333     0.006663
NI1021   NI        0.600667    0.167333    0.267333     0.004307
NI1022   NI        0.600667    0.200667    0.234000     0.004307
NI1023   NI        0.634000    0.167333    0.234000     0.004307
NI1024   NI        0.634000    0.200667    0.267333     0.004307
NI1025   NI        0.667333    0.167333    0.267333     0.004307
NI1026   NI        0.667333    0.200667    0.234000     0.004307
NI1027   NI        0.700667    0.167333    0.234000     0.004307
NI1028   NI        0.700667    0.200667    0.267333     0.004307
NI1029   NI        0.734000    0.167333    0.267333     0.004307
NI1030   NI        0.734000    0.200667    0.234000     0.004307
NI1031   NI        0.767333    0.200667    0.267333     0.004307
NI1032   NI        0.067333    0.234000    0.267333     0.004307
NI1033   NI        0.067333    0.267333    0.234000     0.004307
NI1034   NI        0.100667    0.234000    0.234000     0.004307
NI1035   NI        0.100667    0.267333    0.267333     0.004307
NI1036   NI        0.134000    0.234000    0.267333     0.004307
NI1037   NI        0.134000    0.267333    0.234000     0.004307
NI1038   NI        0.167333    0.234000    0.234000     0.004307
NI1039   NI        0.167333    0.267333    0.267333     0.004307
NI1040   NI        0.200667    0.234000    0.267333     0.004307
NI1041   NI        0.200667    0.267333    0.234000     0.004307
NI1042   NI        0.234000    0.234000    0.234000     0.004307
CU1043   CU        0.234000    0.267333    0.267333     0.006663
CU1044   CU        0.267333    0.234000    0.267333     0.006663
CU1045   CU        0.267333    0.267333    0.234000     0.006663
CU1046   CU        0.300667    0.234000    0.234000     0.006663
CU1047   CU        0.300667    0.267333    0.267333     0.006663
CU1048   CU        0.334000    0.234000    0.267333     0.006663
CU1049   CU        0.334000    0.267333    0.234000     0.006663
CU1050   CU        0.367333    0.234000    0.234000     0.006663
CU1051   CU        0.367333    0.267333    0.267333     0.006663
CU1052   CU        0.400667    0.234000    0.267333     0.006663
CU1053   CU        0.400667    0.267333    0.234000     0.006663
CU1054   CU        0.434000    0.234000    0.234000     0.006663
CU1055   CU        0.434000    0.267333    0.267333     0.006663
CU1056   CU        0.467333    0.234000    0.267333     0.006663
CU1057   CU        0.467333    0.267333    0.234000     0.006663
CU1058   CU        0.500667    0.234000    0.234000     0.006663
CU1059   CU        0.500667    0.267333    0.267333     0.006663
CU1060   CU        0.534000    0.234000    0.267333     0.006663
CU1061   CU        0.534000    0.267333    0.234000     0.006663
CU1062   CU        0.567333    0.234000    0.234000     0.006663
CU1063   CU        0.567333    0.267333    0.267333     0.006663
CU1064   CU        0.600667    0.234000    0.267333     0.006663
CU1065   CU        0.600667    0.267333    0.234000     0.006663
NI1066   NI        0.634000    0.234000    0.234000     0.004307
CU1067   CU        0.634000    0.267333    0.267333     0.006663
NI1068   NI        0.667333    0.234000    0.267333     0.004307
NI1069   NI        0.667333    0.267333    0.234000     0.004307
NI1070   NI        0.700667    0.234000    0.234000     0.004307
NI1071   NI        0.700667    0.267333    0.267333     0.004307
NI1072   NI        0.734000    0.234000    0.267333     0.004307
NI1073   NI        0.734000    0.267333    0.234000     0.004307
NI1074   NI        0.767333    0.234000    0.234000     0.004307
NI1075   NI        0.767333    0.267333    0.267333     0.004307
NI1076   NI        0.800667    0.234000    0.267333     0.004307
NI1077   NI        0.800667    0.267333    0.234000     0.004307
NI1078   NI        0.034000    0.334000    0.267333     0.004307
NI1079   NI        0.067333    0.300667    0.267333     0.004307
NI1080   NI        0.067333    0.334000    0.234000     0.004307
NI1081   NI        0.100667    0.300667    0.234000     0.004307
NI1082   NI        0.100667    0.334000    0.267333     0.004307
NI1083   NI        0.134000    0.300667    0.267333     0.004307
NI1084   NI        0.134000    0.334000    0.234000     0.004307
NI1085   NI        0.167333    0.300667    0.234000     0.004307
NI1086   NI        0.167333    0.334000    0.267333     0.004307
CU1087   CU        0.200667    0.300667    0.267333     0.006663
NI1088   NI        0.200667    0.334000    0.234000     0.004307
CU1089   CU        0.234000    0.300667    0.234000     0.006663
CU1090   CU        0.234000    0.334000    0.267333     0.006663
CU1091   CU        0.267333    0.300667    0.267333     0.006663
CU1092   CU        0.267333    0.334000    0.234000     0.006663
CU1093   CU        0.300667    0.300667    0.234000     0.006663
CU1094   CU        0.300667    0.334000    0.267333     0.006663
CU1095   CU        0.334000    0.300667    0.267333     0.006663
CU1096   CU        0.334000    0.334000    0.234000     0.006663
CU1097   CU        0.367333    0.300667    0.234000     0.006663
CU1098   CU        0.367333    0.334000    0.267333     0.006663
CU1099   CU        0.400667    0.300667    0.267333     0.006663
CU1100   CU        0.400667    0.334000    0.234000     0.006663
CU1101   CU        0.434000    0.300667    0.234000     0.006663
CU1102   CU        0.434000    0.334000    0.267333     0.006663
CU1103   CU        0.467333    0.300667    0.267333     0.006663
CU1104   CU        0.467333    0.334000    0.234000     0.006663
CU1105   CU        0.500667    0.300667    0.234000     0.006663
CU1106   CU        0.500667    0.334000    0.267333     0.006663
CU1107   CU        0.534000    0.300667    0.267333     0.006663
CU1108   CU        0.534000    0.334000    0.234000     0.006663
CU1109   CU        0.567333    0.300667    0.234000     0.006663
CU1110   CU        0.567333    0.334000    0.267333     0.006663
CU1111   CU        0.600667    0.300667    0.267333     0.006663
CU1112   CU        0.600667    0.334000    0.234000     0.006663
CU1113   CU        0.634000    0.300667    0.234000     0.006663
CU1114   CU        0.634000    0.334000    0.267333     0.006663
CU1115   CU        0.667333    0.300667    0.267333     0.006663
NI1116   NI        0.667333    0.334000    0.234000     0.004307
NI1117   NI        0.700667    0.300667    0.234000     0.004307
NI1118   NI        0.700667    0.334000    0.267333     0.004307
NI1119   NI        0.734000    0.300667    0.267333     0.004307
NI1120   NI        0.734000    0.334000    0.234000     0.004307
NI1121   NI        0.767333    0.300667    0.234000     0.004307
NI1122   NI        0.767333    0.334000    0.267333     0.004307
NI1123   NI        0.800667    0.300667    0.267333     0.004307
NI1124   NI        0.800667    0.334000    0.234000     0.004307
NI1125   NI        0.834000    0.334000    0.267333     0.004307
NI1126   NI        0.034000    0.367333    0.234000     0.004307
NI1127   NI        0.034000    0.400667    0.267333     0.004307
NI1128   NI        0.067333    0.367333    0.267333     0.004307
NI1129   NI        0.067333    0.400667    0.234000     0.004307
NI1130   NI        0.100667    0.367333    0.234000     0.004307
NI1131   NI        0.100667    0.400667    0.267333     0.004307
NI1132   NI        0.134000    0.367333    0.267333     0.004307
NI1133   NI        0.134000    0.400667    0.234000     0.004307
NI1134   NI        0.167333    0.367333    0.234000     0.004307
CU1135   CU        0.167333    0.400667    0.267333     0.006663
CU1136   CU        0.200667    0.367333    0.267333     0.006663
CU1137   CU        0.200667    0.400667    0.234000     0.006663
CU1138   CU        0.234000    0.367333    0.234000     0.006663
CU1139   CU        0.234000    0.400667    0.267333     0.006663
CU1140   CU        0.267333    0.367333    0.267333     0.006663
CU1141   CU        0.267333    0.400667    0.234000     0.006663
CU1142   CU        0.300667    0.367333    0.234000     0.006663
CU1143   CU        0.300667    0.400667    0.267333     0.006663
CU1144   CU        0.334000    0.367333    0.267333     0.006663
CU1145   CU        0.334000    0.400667    0.234000     0.006663
CU1146   CU        0.367333    0.367333    0.234000     0.006663
CU1147   CU        0.367333    0.400667    0.267333     0.006663
CU1148   CU        0.400667    0.367333    0.267333     0.006663
CU1149   CU        0.400667    0.400667    0.234000     0.006663
CU1150   CU        0.434000    0.367333    0.234000     0.006663
CU1151   CU        0.434000    0.400667    0.267333     0.006663
CU1152   CU        0.467333    0.367333    0.267333     0.006663
CU1153   CU        0.467333    0.400667    0.234000     0.006663
CU1154   CU        0.500667    0.367333    0.234000     0.006663
CU1155   CU        0.500667    0.400667    0.267333     0.006663
CU1156   CU        0.534000    0.367333    0.267333     0.006663
CU1157   CU        0.534000    0.400667    0.234000     0.006663
CU1158   CU        0.567333    0.367333    0.234000     0.006663
CU1159   CU        0.567333    0.400667    0.267333     0.006663
CU1160   CU        0.600667    0.367333    0.267333     0.006663
CU1161   CU        0.600667    0.400667    0.234000     0.006663
CU1162   CU        0.634000    0.367333    0.234000     0.006663
CU1163   CU        0.634000    0.400667    0.267333     0.006663
CU1164   CU        0.667333    0.367333    0.267333     0.006663
CU1165   CU        0.667333    0.400667    0.234000     0.006663
NI1166   NI        0.700667    0.367333    0.234000     0.004307
CU1167   CU        0.700667    0.400667    0.267333     0.006663
NI1168   NI        0.734000    0.367333    0.267333     0.004307
NI1169   NI        0.734000    0.400667    0.234000     0.004307
NI1170   NI        0.767333    0.367333    0.234000     0.004307
NI1171   NI        0.767333    0.400667    0.267333     0.004307
NI1172   NI        0.800667    0.367333    0.267333     0.004307
NI1173   NI        0.800667    0.400667    0.234000     0.004307
NI1174   NI        0.834000    0.367333    0.234000     0.004307
NI1175   NI        0.834000    0.400667    0.267333     0.004307
NI1176   NI        0.034000    0.434000    0.234000     0.004307
NI1177   NI        0.034000    0.467333    0.267333     0.004307
NI1178   NI        0.067333    0.434000    0.267333     0.004307
NI1179   NI        0.067333    0.467333    0.234000     0.004307
NI1180   NI        0.100667    0.434000    0.234000     0.004307
NI1181   NI        0.100667    0.467333    0.267333     0.004307
NI1182   NI        0.134000    0.434000    0.267333     0.004307
NI1183   NI        0.134000    0.467333    0.234000     0.004307
NI1184   NI        0.167333    0.434000    0.234000     0.004307
CU1185   CU        0.167333    0.467333    0.267333     0.006663
CU1186   CU        0.200667    0.434000    0.267333     0.006663
CU1187   CU        0.200667    0.467333    0.234000     0.006663
CU1188   CU        0.234000    0.434000    0.234000     0.006663
CU1189   CU        0.234000    0.467333    0.267333     0.006663
CU1190   CU        0.267333    0.434000    0.267333     0.006663
CU1191   CU        0.267333    0.467333    0.234000     0.006663
CU1192   CU        0.300667    0.434000    0.234000     0.006663
CU1193   CU        0.300667    0.467333    0.267333     0.006663
CU1194   CU        0.334000    0.434000    0.267333     0.006663
CU1195   CU        0.334000    0.467333    0.234000     0.006663
CU1196   CU        0.367333    0.434000    0.234000     0.006663
CU1197   CU        0.367333    0.467333    0.267333     0.006663
CU1198   CU        0.400667    0.434000    0.267333     0.006663
CU1199   CU        0.400667    0.467333    0.234000     0.006663
CU1200   CU        0.434000    0.434000    0.234000     0.006663
CU1201   CU        0.434000    0.467333    0.267333     0.006663
CU1202   CU        0.467333    0.434000    0.267333     0.006663
CU1203   CU        0.467333    0.467333    0.234000     0.006663
CU1204   CU        0.500667    0.434000    0.234000     0.006663
CU1205   CU        0.500667    0.467333    0.267333     0.006663
CU1206   CU        0.534000    0.434000    0.267333     0.006663
CU1207   CU        0.534000    0.467333    0.234000     0.006663
CU1208   CU        0.567333    0.434000    0.234000     0.006663
CU1209   CU        0.567333    0.467333    0.267333     0.006663
CU1210   CU        0.600667    0.434000    0.267333     0.006663
CU1211   CU        0.600667    0.467333    0.234000     0.006663
CU1212   CU        0.634000    0.434000    0.234000     0.006663
CU1213   CU        0.634000    0.467333    0.267333     0.006663
CU1214   CU        0.667333    0.434000    0.267333     0.006663
CU1215   CU        0.667333    0.467333    0.234000     0.006663
NI1216   NI        0.700667    0.434000    0.234000     0.004307
CU1217   CU        0.700667    0.467333    0.267333     0.006663
NI1218   NI        0.734000    0.434000    0.267333     0.004307
NI1219   NI        0.734000    0.467333    0.234000     0.004307
NI1220   NI        0.767333    0.434000    0.234000     0.004307
NI1221   NI        0.767333    0.467333    0.267333     0.004307
NI1222   NI        0.800667    0.434000    0.267333     0.004307
NI1223   NI        0.800667    0.467333    0.234000     0.004307
NI1224   NI        0.834000    0.434000    0.234000     0.004307
NI1225   NI        0.834000    0.467333    0.267333     0.004307
NI1226   NI        0.034000    0.500667    0.234000     0.004307
NI1227   NI        0.034000    0.534000    0.267333     0.004307
NI1228   NI        0.067333    0.500667    0.267333     0.004307
NI1229   NI        0.067333    0.534000    0.234000     0.004307
NI1230   NI        0.100667    0.500667    0.234000     0.004307
NI1231   NI        0.100667    0.534000    0.267333     0.004307
NI1232   NI        0.134000    0.500667    0.267333     0.004307
NI1233   NI        0.134000    0.534000    0.234000     0.004307
NI1234   NI        0.167333    0.500667    0.234000     0.004307
NI1235   NI        0.167333    0.534000    0.267333     0.004307
CU1236   CU        0.200667    0.500667    0.267333     0.006663
NI1237   NI        0.200667    0.534000    0.234000     0.004307
CU1238   CU        0.234000    0.500667    0.234000     0.006663
CU1239   CU        0.234000    0.534000    0.267333     0.006663
CU1240   CU        0.267333    0.500667    0.267333     0.006663
CU1241   CU        0.267333    0.534000    0.234000     0.006663
CU1242   CU        0.300667    0.500667    0.234000     0.006663
CU1243   CU        0.300667    0.534000    0.267333     0.006663
CU1244   CU        0.334000    0.500667    0.267333     0.006663
CU1245   CU        0.334000    0.534000    0.234000     0.006663
CU1246   CU        0.367333    0.500667    0.234000     0.006663
CU1247   CU        0.367333    0.534000    0.267333     0.006663
CU1248   CU        0.400667    0.500667    0.267333     0.006663
CU1249   CU        0.400667    0.534000    0.234000     0.006663
CU1250   CU        0.434000    0.500667    0.234000     0.006663
CU1251   CU        0.434000    0.534000    0.267333     0.006663
CU1252   CU        0.467333    0.500667    0.267333     0.006663
CU1253   CU        0.467333    0.534000    0.234000     0.006663
CU1254   CU        0.500667    0.500667    0.234000     0.006663
CU1255   CU        0.500667    0.534000    0.267333     0.006663
CU1256   CU        0.534000    0.500667    0.267333     0.006663
CU1257   CU        0.534000    0.534000    0.234000     0.006663
CU1258   CU        0.567333    0.500667    0.234000     0.006663
CU1259   CU        0.567333    0.534000    0.267333     0.006663
CU1260   CU        0.600667    0.500667    0.267333     0.006663
CU1261   CU        0.600667    0.534000    0.234000     0.006663
CU1262   CU        0.634000    0.500667    0.234000     0.006663
CU1263   CU        0.634000    0.534000    0.267333     0.006663
CU1264   CU        0.667333    0.500667    0.267333     0.006663
NI1265   NI        0.667333    0.534000    0.234000     0.004307
NI1266   NI        0.700667    0.500667    0.234000     0.004307
NI1267   NI        0.700667    0.534000    0.267333     0.004307
NI1268   NI        0.734000    0.500667    0.267333     0.004307
NI1269   NI        0.734000    0.534000    0.234000     0.004307
NI1270   NI        0.767333    0.500667    0.234000     0.004307
NI1271   NI        0.767333    0.534000    0.267333     0.004307
NI1272   NI        0.800667    0.500667    0.267333     0.004307
NI1273   NI        0.800667    0.534000    0.234000     0.004307
NI1274   NI        0.834000    0.500667    0.234000     0.004307
NI1275   NI        0.834000    0.534000    0.267333     0.004307
NI1276   NI        0.067333    0.567333    0.267333     0.004307
NI1277   NI        0.067333    0.600667    0.234000     0.004307
NI1278   NI        0.100667    0.567333    0.234000     0.004307
NI1279   NI        0.100667    0.600667    0.267333     0.004307
NI1280   NI        0.134000    0.567333    0.267333     0.004307
NI1281   NI        0.134000    0.600667    0.234000     0.004307
NI1282   NI        0.167333    0.567333    0.234000     0.004307
NI1283   NI        0.167333    0.600667    0.267333     0.004307
CU1284   CU        0.200667    0.567333    0.267333     0.006663
NI1285   NI        0.200667    0.600667    0.234000     0.004307
CU1286   CU        0.234000    0.567333    0.234000     0.006663
CU1287   CU        0.234000    0.600667    0.267333     0.006663
CU1288   CU        0.267333    0.567333    0.267333     0.006663
CU1289   CU        0.267333    0.600667    0.234000     0.006663
CU1290   CU        0.300667    0.567333    0.234000     0.006663
CU1291   CU        0.300667    0.600667    0.267333     0.006663
CU1292   CU        0.334000    0.567333    0.267333     0.006663
CU1293   CU        0.334000    0.600667    0.234000     0.006663
CU1294   CU        0.367333    0.567333    0.234000     0.006663
CU1295   CU        0.367333    0.600667    0.267333     0.006663
CU1296   CU        0.400667    0.567333    0.267333     0.006663
CU1297   CU        0.400667    0.600667    0.234000     0.006663
CU1298   CU        0.434000    0.567333    0.234000     0.006663
CU1299   CU        0.434000    0.600667    0.267333     0.006663
CU1300   CU        0.467333    0.567333    0.267333     0.006663
CU1301   CU        0.467333    0.600667    0.234000     0.006663
CU1302   CU        0.500667    0.567333    0.234000     0.006663
CU1303   CU        0.500667    0.600667    0.267333     0.006663
CU1304   CU        0.534000    0.567333    0.267333     0.006663
CU1305   CU        0.534000    0.600667    0.234000     0.006663
CU1306   CU        0.567333    0.567333    0.234000     0.006663
CU1307   CU        0.567333    0.600667    0.267333     0.006663
CU1308   CU        0.600667    0.567333    0.267333     0.006663
CU1309   CU        0.600667    0.600667    0.234000     0.006663
CU1310   CU        0.634000    0.567333    0.234000     0.006663
CU1311   CU        0.634000    0.600667    0.267333     0.006663
CU1312   CU        0.667333    0.567333    0.267333     0.006663
NI1313   NI        0.667333    0.600667    0.234000     0.004307
NI1314   NI        0.700667    0.567333    0.234000     0.004307
NI1315   NI        0.700667    0.600667    0.267333     0.004307
NI1316   NI        0.734000    0.567333    0.267333     0.004307
NI1317   NI        0.734000    0.600667    0.234000     0.004307
NI1318   NI        0.767333    0.567333    0.234000     0.004307
NI1319   NI        0.767333    0.600667    0.267333     0.004307
NI1320   NI        0.800667    0.567333    0.267333     0.004307
NI1321   NI        0.800667    0.600667    0.234000     0.004307
NI1322   NI        0.067333    0.634000    0.267333     0.004307
NI1323   NI        0.100667    0.634000    0.234000     0.004307
NI1324   NI        0.100667    0.667333    0.267333     0.004307
NI1325   NI        0.134000    0.634000    0.267333     0.004307
NI1326   NI        0.134000    0.667333    0.234000     0.004307
NI1327   NI        0.167333    0.634000    0.234000     0.004307
NI1328   NI        0.167333    0.667333    0.267333     0.004307
NI1329   NI        0.200667    0.634000    0.267333     0.004307
NI1330   NI        0.200667    0.667333    0.234000     0.004307
NI1331   NI        0.234000    0.634000    0.234000     0.004307
NI1332   NI        0.234000    0.667333    0.267333     0.004307
CU1333   CU        0.267333    0.634000    0.267333     0.006663
NI1334   NI        0.267333    0.667333    0.234000     0.004307
CU1335   CU        0.300667    0.634000    0.234000     0.006663
CU1336   CU        0.300667    0.667333    0.267333     0.006663
CU1337   CU        0.334000    0.634000    0.267333     0.006663
NI1338   NI        0.334000    0.667333    0.234000     0.004307
CU1339   CU        0.367333    0.634000    0.234000     0.006663
CU1340   CU        0.367333    0.667333    0.267333     0.006663
CU1341   CU        0.400667    0.634000    0.267333     0.006663
CU1342   CU        0.400667    0.667333    0.234000     0.006663
CU1343   CU        0.434000    0.634000    0.234000     0.006663
CU1344   CU        0.434000    0.667333    0.267333     0.006663
CU1345   CU        0.467333    0.634000    0.267333     0.006663
CU1346   CU        0.467333    0.667333    0.234000     0.006663
CU1347   CU        0.500667    0.634000    0.234000     0.006663
CU1348   CU        0.500667    0.667333    0.267333     0.006663
CU1349   CU        0.534000    0.634000    0.267333     0.006663
NI1350   NI        0.534000    0.667333    0.234000     0.004307
CU1351   CU        0.567333    0.634000    0.234000     0.006663
CU1352   CU        0.567333    0.667333    0.267333     0.006663
CU1353   CU        0.600667    0.634000    0.267333     0.006663
NI1354   NI        0.600667    0.667333    0.234000     0.004307
NI1355   NI        0.634000    0.634000    0.234000     0.004307
NI1356   NI        0.634000    0.667333    0.267333     0.004307
NI1357   NI        0.667333    0.634000    0.267333     0.004307
NI1358   NI        0.667333    0.667333    0.234000     0.004307
NI1359   NI        0.700667    0.634000    0.234000     0.004307
NI1360   NI        0.700667    0.667333    0.267333     0.004307
NI1361   NI        0.734000    0.634000    0.267333     0.004307
NI1362   NI        0.734000    0.667333    0.234000     0.004307
NI1363   NI        0.767333    0.634000    0.234000     0.004307
NI1364   NI        0.767333    0.667333    0.267333     0.004307
NI1365   NI        0.800667    0.634000    0.267333     0.004307
NI1366   NI        0.134000    0.700667    0.267333     0.004307
NI1367   NI        0.167333    0.700667    0.234000     0.004307
NI1368   NI        0.167333    0.734000    0.267333     0.004307
NI1369   NI        0.200667    0.700667    0.267333     0.004307
NI1370   NI        0.200667    0.734000    0.234000     0.004307
NI1371   NI        0.234000    0.700667    0.234000     0.004307
NI1372   NI        0.234000    0.734000    0.267333     0.004307
NI1373   NI        0.267333    0.700667    0.267333     0.004307
NI1374   NI        0.267333    0.734000    0.234000     0.004307
NI1375   NI        0.300667    0.700667    0.234000     0.004307
NI1376   NI        0.300667    0.734000    0.267333     0.004307
NI1377   NI        0.334000    0.700667    0.267333     0.004307
NI1378   NI        0.334000    0.734000    0.234000     0.004307
NI1379   NI        0.367333    0.700667    0.234000     0.004307
NI1380   NI        0.367333    0.734000    0.267333     0.004307
CU1381   CU        0.400667    0.700667    0.267333     0.006663
NI1382   NI        0.400667    0.734000    0.234000     0.004307
NI1383   NI        0.434000    0.700667    0.234000     0.004307
NI1384   NI        0.434000    0.734000    0.267333     0.004307
CU1385   CU        0.467333    0.700667    0.267333     0.006663
NI1386   NI        0.467333    0.734000    0.234000     0.004307
NI1387   NI        0.500667    0.700667    0.234000     0.004307
NI1388   NI        0.500667    0.734000    0.267333     0.004307
NI1389   NI        0.534000    0.700667    0.267333     0.004307
NI1390   NI        0.534000    0.734000    0.234000     0.004307
NI1391   NI        0.567333    0.700667    0.234000     0.004307
NI1392   NI        0.567333    0.734000    0.267333     0.004307
NI1393   NI        0.600667    0.700667    0.267333     0.004307
NI1394   NI        0.600667    0.734000    0.234000     0.004307
NI1395   NI        0.634000    0.700667    0.234000     0.004307
NI1396   NI        0.634000    0.734000    0.267333     0.004307
NI1397   NI        0.667333    0.700667    0.267333     0.004307
NI1398   NI        0.667333    0.734000    0.234000     0.004307
NI1399   NI        0.700667    0.700667    0.234000     0.004307
NI1400   NI        0.700667    0.734000    0.267333     0.004307
NI1401   NI        0.734000    0.700667    0.267333     0.004307
NI1402   NI        0.200667    0.767333    0.267333     0.004307
NI1403   NI        0.234000    0.767333    0.234000     0.004307
NI1404   NI        0.234000    0.800667    0.267333     0.004307
NI1405   NI        0.267333    0.767333    0.267333     0.004307
NI1406   NI        0.267333    0.800667    0.234000     0.004307
NI1407   NI        0.300667    0.767333    0.234000     0.004307
NI1408   NI        0.300667    0.800667    0.267333     0.004307
NI1409   NI        0.334000    0.767333    0.267333     0.004307
NI1410   NI        0.334000    0.800667    0.234000     0.004307
NI1411   NI        0.367333    0.767333    0.234000     0.004307
NI1412   NI        0.367333    0.800667    0.267333     0.004307
NI1413   NI        0.400667    0.767333    0.267333     0.004307
NI1414   NI        0.400667    0.800667    0.234000     0.004307
NI1415   NI        0.434000    0.767333    0.234000     0.004307
NI1416   NI        0.434000    0.800667    0.267333     0.004307
NI1417   NI        0.467333    0.767333    0.267333     0.004307
NI1418   NI        0.467333    0.800667    0.234000     0.004307
NI1419   NI        0.500667    0.767333    0.234000     0.004307
NI1420   NI        0.500667    0.800667    0.267333     0.004307
NI1421   NI        0.534000    0.767333    0.267333     0.004307
NI1422   NI        0.534000    0.800667    0.234000     0.004307
NI1423   NI        0.567333    0.767333    0.234000     0.004307
NI1424   NI        0.567333    0.800667    0.267333     0.004307
NI1425   NI        0.600667    0.767333    0.267333     0.004307
NI1426   NI        0.600667    0.800667    0.234000     0.004307
NI1427   NI        0.634000    0.767333    0.234000     0.004307
NI1428   NI        0.634000    0.800667    0.267333     0.004307
NI1429   NI        0.667333    0.767333    0.267333     0.004307
NI1430   NI        0.334000    0.834000    0.267333     0.004307
NI1431   NI        0.367333    0.834000    0.234000     0.004307
NI1432   NI        0.400667    0.834000    0.267333     0.004307
NI1433   NI        0.434000    0.834000    0.234000     0.004307
NI1434   NI        0.467333    0.834000    0.267333     0.004307
NI1435   NI        0.500667    0.834000    0.234000     0.004307
NI1436   NI        0.534000    0.834000    0.267333     0.004307
NI1437   NI        0.367333    0.000667    0.334000     0.004307
NI1438   NI        0.400667    0.000667    0.300667     0.004307
NI1439   NI        0.434000    0.000667    0.334000     0.004307
NI1440   NI        0.467333    0.000667    0.300667     0.004307
NI1441   NI        0.500667    0.000667    0.334000     0.004307
NI1442   NI        0.200667    0.067333    0.300667     0.004307
NI1443   NI        0.234000    0.067333    0.334000     0.004307
NI1444   NI        0.267333    0.034000    0.334000     0.004307
NI1445   NI        0.267333    0.067333    0.300667     0.004307
NI1446   NI        0.300667    0.034000    0.300667     0.004307
NI1447   NI        0.300667    0.067333    0.334000     0.004307
NI1448   NI        0.334000    0.034000    0.334000     0.004307
NI1449   NI        0.334000    0.067333    0.300667     0.004307
NI1450   NI        0.367333    0.034000    0.300667     0.004307
NI1451   NI        0.367333    0.067333    0.334000     0.004307
NI1452   NI        0.400667    0.034000    0.334000     0.004307
NI1453   NI        0.400667    0.067333    0.300667     0.004307
NI1454   NI        0.434000    0.034000    0.300667     0.004307
NI1455   NI        0.434000    0.067333    0.334000     0.004307
NI1456   NI        0.467333    0.034000    0.334000     0.004307
NI1457   NI        0.467333    0.067333    0.300667     0.004307
NI1458   NI        0.500667    0.034000    0.300667     0.004307
NI1459   NI        0.500667    0.067333    0.334000     0.004307
NI1460   NI        0.534000    0.034000    0.334000     0.004307
NI1461   NI        0.534000    0.067333    0.300667     0.004307
NI1462   NI        0.567333    0.034000    0.300667     0.004307
NI1463   NI        0.567333    0.067333    0.334000     0.004307
NI1464   NI        0.600667    0.034000    0.334000     0.004307
NI1465   NI        0.600667    0.067333    0.300667     0.004307
NI1466   NI        0.634000    0.067333    0.334000     0.004307
NI1467   NI        0.667333    0.067333    0.300667     0.004307
NI1468   NI        0.100667    0.134000    0.334000     0.004307
NI1469   NI        0.134000    0.100667    0.334000     0.004307
NI1470   NI        0.134000    0.134000    0.300667     0.004307
NI1471   NI        0.167333    0.100667    0.300667     0.004307
NI1472   NI        0.167333    0.134000    0.334000     0.004307
NI1473   NI        0.200667    0.100667    0.334000     0.004307
NI1474   NI        0.200667    0.134000    0.300667     0.004307
NI1475   NI        0.234000    0.100667    0.300667     0.004307
NI1476   NI        0.234000    0.134000    0.334000     0.004307
NI1477   NI        0.267333    0.100667    0.334000     0.004307
NI1478   NI        0.267333    0.134000    0.300667     0.004307
NI1479   NI        0.300667    0.100667    0.300667     0.004307
NI1480   NI        0.300667    0.134000    0.334000     0.004307
NI1481   NI        0.334000    0.100667    0.334000     0.004307
NI1482   NI        0.334000    0.134000    0.300667     0.004307
NI1483   NI        0.367333    0.100667    0.300667     0.004307
NI1484   NI        0.367333    0.134000    0.334000     0.004307
NI1485   NI        0.400667    0.100667    0.334000     0.004307
NI1486   NI        0.400667    0.134000    0.300667     0.004307
NI1487   NI        0.434000    0.100667    0.300667     0.004307
CU1488   CU        0.434000    0.134000    0.334000     0.006663
NI1489   NI        0.467333    0.100667    0.334000     0.004307
NI1490   NI        0.467333    0.134000    0.300667     0.004307
NI1491   NI        0.500667    0.100667    0.300667     0.004307
NI1492   NI        0.500667    0.134000    0.334000     0.004307
NI1493   NI        0.534000    0.100667    0.334000     0.004307
NI1494   NI        0.534000    0.134000    0.300667     0.004307
NI1495   NI        0.567333    0.100667    0.300667     0.004307
NI1496   NI        0.567333    0.134000    0.334000     0.004307
NI1497   NI        0.600667    0.100667    0.334000     0.004307
NI1498   NI        0.600667    0.134000    0.300667     0.004307
NI1499   NI        0.634000    0.100667    0.300667     0.004307
NI1500   NI        0.634000    0.134000    0.334000     0.004307
NI1501   NI        0.667333    0.100667    0.334000     0.004307
NI1502   NI        0.667333    0.134000    0.300667     0.004307
NI1503   NI        0.700667    0.100667    0.300667     0.004307
NI1504   NI        0.700667    0.134000    0.334000     0.004307
NI1505   NI        0.734000    0.100667    0.334000     0.004307
NI1506   NI        0.734000    0.134000    0.300667     0.004307
NI1507   NI        0.767333    0.134000    0.334000     0.004307
NI1508   NI        0.067333    0.200667    0.300667     0.004307
NI1509   NI        0.100667    0.167333    0.300667     0.004307
NI1510   NI        0.100667    0.200667    0.334000     0.004307
NI1511   NI        0.134000    0.167333    0.334000     0.004307
NI1512   NI        0.134000    0.200667    0.300667     0.004307
NI1513   NI        0.167333    0.167333    0.300667     0.004307
NI1514   NI        0.167333    0.200667    0.334000     0.004307
NI1515   NI        0.200667    0.167333    0.334000     0.004307
NI1516   NI        0.200667    0.200667    0.300667     0.004307
NI1517   NI        0.234000    0.167333    0.300667     0.004307
NI1518   NI        0.234000    0.200667    0.334000     0.004307
NI1519   NI        0.267333    0.167333    0.334000     0.004307
CU1520   CU        0.267333    0.200667    0.300667     0.006663
NI1521   NI        0.300667    0.167333    0.300667     0.004307
CU1522   CU        0.300667    0.200667    0.334000     0.006663
CU1523   CU        0.334000    0.167333    0.334000     0.006663
CU1524   CU        0.334000    0.200667    0.300667     0.006663
CU1525   CU        0.367333    0.167333    0.300667     0.006663
CU1526   CU        0.367333    0.200667    0.334000     0.006663
CU1527   CU        0.400667    0.167333    0.334000     0.006663
CU1528   CU        0.400667    0.200667    0.300667     0.006663
CU1529   CU        0.434000    0.167333    0.300667     0.006663
CU1530   CU        0.434000    0.200667    0.334000     0.006663
CU1531   CU        0.467333    0.167333    0.334000     0.006663
CU1532   CU        0.467333    0.200667    0.300667     0.006663
CU1533   CU        0.500667    0.167333    0.300667     0.006663
CU1534   CU        0.500667    0.200667    0.334000     0.006663
CU1535   CU        0.534000    0.167333    0.334000     0.006663
CU1536   CU        0.534000    0.200667    0.300667     0.006663
NI1537   NI        0.567333    0.167333    0.300667     0.004307
CU1538   CU        0.567333    0.200667    0.334000     0.006663
NI1539   NI        0.600667    0.167333    0.334000     0.004307
CU1540   CU        0.600667    0.200667    0.300667     0.006663
NI1541   NI        0.634000    0.167333    0.300667     0.004307
NI1542   NI        0.634000    0.200667    0.334000     0.004307
NI1543   NI        0.667333    0.167333    0.334000     0.004307
NI1544   NI        0.667333    0.200667    0.300667     0.004307
NI1545   NI        0.700667    0.167333    0.300667     0.004307
NI1546   NI        0.700667    0.200667    0.334000     0.004307
NI1547   NI        0.734000    0.167333    0.334000     0.004307
NI1548   NI        0.734000    0.200667    0.300667     0.004307
NI1549   NI        0.767333    0.167333    0.300667     0.004307
NI1550   NI        0.767333    0.200667    0.334000     0.004307
NI1551   NI        0.800667    0.200667    0.300667     0.004307
NI1552   NI        0.034000    0.267333    0.334000     0.004307
NI1553   NI        0.067333    0.234000    0.334000     0.004307
NI1554   NI        0.067333    0.267333    0.300667     0.004307
NI1555   NI        0.100667    0.234000    0.300667     0.004307
NI1556   NI        0.100667    0.267333    0.334000     0.004307
NI1557   NI        0.134000    0.234000    0.334000     0.004307
NI1558   NI        0.134000    0.267333    0.300667     0.004307
NI1559   NI        0.167333    0.234000    0.300667     0.004307
NI1560   NI        0.167333    0.267333    0.334000     0.004307
NI1561   NI        0.200667    0.234000    0.334000     0.004307
CU1562   CU        0.200667    0.267333    0.300667     0.006663
CU1563   CU        0.234000    0.234000    0.300667     0.006663
CU1564   CU        0.234000    0.267333    0.334000     0.006663
CU1565   CU        0.267333    0.234000    0.334000     0.006663
CU1566   CU        0.267333    0.267333    0.300667     0.006663
CU1567   CU        0.300667    0.234000    0.300667     0.006663
CU1568   CU        0.300667    0.267333    0.334000     0.006663
CU1569   CU        0.334000    0.234000    0.334000     0.006663
CU1570   CU        0.334000    0.267333    0.300667     0.006663
CU1571   CU        0.367333    0.234000    0.300667     0.006663
CU1572   CU        0.367333    0.267333    0.334000     0.006663
CU1573   CU        0.400667    0.234000    0.334000     0.006663
CU1574   CU        0.400667    0.267333    0.300667     0.006663
CU1575   CU        0.434000    0.234000    0.300667     0.006663
CU1576   CU        0.434000    0.267333    0.334000     0.006663
CU1577   CU        0.467333    0.234000    0.334000     0.006663
CU1578   CU        0.467333    0.267333    0.300667     0.006663
CU1579   CU        0.500667    0.234000    0.300667     0.006663
CU1580   CU        0.500667    0.267333    0.334000     0.006663
CU1581   CU        0.534000    0.234000    0.334000     0.006663
CU1582   CU        0.534000    0.267333    0.300667     0.006663
CU1583   CU        0.567333    0.234000    0.300667     0.006663
CU1584   CU        0.567333    0.267333    0.334000     0.006663
CU1585   CU        0.600667    0.234000    0.334000     0.006663
CU1586   CU        0.600667    0.267333    0.300667     0.006663
CU1587   CU        0.634000    0.234000    0.300667     0.006663
CU1588   CU        0.634000    0.267333    0.334000     0.006663
NI1589   NI        0.667333    0.234000    0.334000     0.004307
CU1590   CU        0.667333    0.267333    0.300667     0.006663
NI1591   NI        0.700667    0.234000    0.300667     0.004307
NI1592   NI        0.700667    0.267333    0.334000     0.004307
NI1593   NI        0.734000    0.234000    0.334000     0.004307
NI1594   NI        0.734000    0.267333    0.300667     0.004307
NI1595   NI        0.767333    0.234000    0.300667     0.004307
NI1596   NI        0.767333    0.267333    0.334000     0.004307
NI1597   NI        0.800667    0.234000    0.334000     0.004307
NI1598   NI        0.800667    0.267333    0.300667     0.004307
NI1599   NI        0.834000    0.267333    0.334000     0.004307
NI1600   NI        0.034000    0.300667    0.300667     0.004307
NI1601   NI        0.034000    0.334000    0.334000     0.004307
NI1602   NI        0.067333    0.300667    0.334000     0.004307
NI1603   NI        0.067333    0.334000    0.300667     0.004307
NI1604   NI        0.100667    0.300667    0.300667     0.004307
NI1605   NI        0.100667    0.334000    0.334000     0.004307
NI1606   NI        0.134000    0.300667    0.334000     0.004307
NI1607   NI        0.134000    0.334000    0.300667     0.004307
NI1608   NI        0.167333    0.300667    0.300667     0.004307
CU1609   CU        0.167333    0.334000    0.334000     0.006663
CU1610   CU        0.200667    0.300667    0.334000     0.006663
CU1611   CU        0.200667    0.334000    0.300667     0.006663
CU1612   CU        0.234000    0.300667    0.300667     0.006663
CU1613   CU        0.234000    0.334000    0.334000     0.006663
CU1614   CU        0.267333    0.300667    0.334000     0.006663
CU1615   CU        0.267333    0.334000    0.300667     0.006663
CU1616   CU        0.300667    0.300667    0.300667     0.006663
CU1617   CU        0.300667    0.334000    0.334000     0.006663
CU1618   CU        0.334000    0.300667    0.334000     0.006663
CU1619   CU        0.334000    0.334000    0.300667     0.006663
CU1620   CU        0.367333    0.300667    0.300667     0.006663
CU1621   CU        0.367333    0.334000    0.334000     0.006663
CU1622   CU        0.400667    0.300667    0.334000     0.006663
CU1623   CU        0.400667    0.334000    0.300667     0.006663
CU1624   CU        0.434000    0.300667    0.300667     0.006663
CU1625   CU        0.434000    0.334000    0.334000     0.006663
CU1626   CU        0.467333    0.300667    0.334000     0.006663
CU1627   CU        0.467333    0.334000    0.300667     0.006663
CU1628   CU        0.500667    0.300667    0.300667     0.006663
CU1629   CU        0.500667    0.334000    0.334000     0.006663
CU1630   CU        0.534000    0.300667    0.334000     0.006663
CU1631   CU        0.534000    0.334000    0.300667     0.006663
CU1632   CU        0.567333    0.300667    0.300667     0.006663
CU1633   CU        0.567333    0.334000    0.334000     0.006663
CU1634   CU        0.600667    0.300667    0.334000     0.006663
CU1635   CU        0.600667    0.334000    0.300667     0.006663
CU1636   CU        0.634000    0.300667    0.300667     0.006663
CU1637   CU        0.634000    0.334000    0.334000     0.006663
CU1638   CU        0.667333    0.300667    0.334000     0.006663
CU1639   CU        0.667333    0.334000    0.300667     0.006663
NI1640   NI        0.700667    0.300667    0.300667     0.004307
CU1641   CU        0.700667    0.334000    0.334000     0.006663
NI1642   NI        0.734000    0.300667    0.334000     0.004307
NI1643   NI        0.734000    0.334000    0.300667     0.004307
NI1644   NI        0.767333    0.300667    0.300667     0.004307
NI1645   NI        0.767333    0.334000    0.334000     0.004307
NI1646   NI        0.800667    0.300667    0.334000     0.004307
NI1647   NI        0.800667    0.334000    0.300667     0.004307
NI1648   NI        0.834000    0.300667    0.300667     0.004307
NI1649   NI        0.834000    0.334000    0.334000     0.004307
NI1650   NI        0.000667    0.367333    0.334000     0.004307
NI1651   NI        0.000667    0.400667    0.300667     0.004307
NI1652   NI        0.034000    0.367333    0.300667     0.004307
NI1653   NI        0.034000    0.400667    0.334000     0.004307
NI1654   NI        0.067333    0.367333    0.334000     0.004307
NI1655   NI        0.067333    0.400667    0.300667     0.004307
NI1656   NI        0.100667    0.367333    0.300667     0.004307
NI1657   NI        0.100667    0.400667    0.334000     0.004307
NI1658   NI        0.134000    0.367333    0.334000     0.004307
NI1659   NI        0.134000    0.400667    0.300667     0.004307
CU1660   CU        0.167333    0.367333    0.300667     0.006663
CU1661   CU        0.167333    0.400667    0.334000     0.006663
CU1662   CU        0.200667    0.367333    0.334000     0.006663
CU1663   CU        0.200667    0.400667    0.300667     0.006663
CU1664   CU        0.234000    0.367333    0.300667     0.006663
CU1665   CU        0.234000    0.400667    0.334000     0.006663
CU1666   CU        0.267333    0.367333    0.334000     0.006663
CU1667   CU        0.267333    0.400667    0.300667     0.006663
CU1668   CU        0.300667    0.367333    0.300667     0.006663
CU1669   CU        0.300667    0.400667    0.334000     0.006663
CU1670   CU        0.334000    0.367333    0.334000     0.006663
CU1671   CU        0.334000    0.400667    0.300667     0.006663
CU1672   CU        0.367333    0.367333    0.300667     0.006663
CU1673   CU        0.367333    0.400667    0.334000     0.006663
CU1674   CU        0.400667    0.367333    0.334000     0.006663
CU1675   CU        0.400667    0.400667    0.300667     0.006663
CU1676   CU        0.434000    0.367333    0.300667     0.006663
CU1677   CU        0.434000    0.400667    0.334000     0.006663
CU1678   CU        0.467333    0.367333    0.334000     0.006663
CU1679   CU        0.467333    0.400667    0.300667     0.006663
CU1680   CU        0.500667    0.367333    0.300667     0.006663
CU1681   CU        0.500667    0.400667    0.334000     0.006663
CU1682   CU        0.534000    0.367333    0.334000     0.006663
CU1683   CU        0.534000    0.400667    0.300667     0.006663
CU1684   CU        0.567333    0.367333    0.300667     0.006663
CU1685   CU        0.567333    0.400667    0.334000     0.006663
CU1686   CU        0.600667    0.367333    0.334000     0.006663
CU1687   CU        0.600667    0.400667    0.300667     0.006663
CU1688   CU        0.634000    0.367333    0.300667     0.006663
CU1689   CU        0.634000    0.400667    0.334000     0.006663
CU1690   CU        0.667333    0.367333    0.334000     0.006663
CU1691   CU        0.667333    0.400667    0.300667     0.006663
CU1692   CU        0.700667    0.367333    0.300667     0.006663
CU1693   CU        0.700667    0.400667    0.334000     0.006663
NI1694   NI        0.734000    0.367333    0.334000     0.004307
NI1695   NI        0.734000    0.400667    0.300667     0.004307
NI1696   NI        0.767333    0.367333    0.300667     0.004307
NI1697   NI        0.767333    0.400667    0.334000     0.004307
NI1698   NI        0.800667    0.367333    0.334000     0.004307
NI1699   NI        0.800667    0.400667    0.300667     0.004307
NI1700   NI        0.834000    0.367333    0.300667     0.004307
NI1701   NI        0.834000    0.400667    0.334000     0.004307
NI1702   NI        0.867333    0.367333    0.334000     0.004307
NI1703   NI        0.867333    0.400667    0.300667     0.004307
NI1704   NI        0.000667    0.434000    0.334000     0.004307
NI1705   NI        0.000667    0.467333    0.300667     0.004307
NI1706   NI        0.034000    0.434000    0.300667     0.004307
NI1707   NI        0.034000    0.467333    0.334000     0.004307
NI1708   NI        0.067333    0.434000    0.334000     0.004307
NI1709   NI        0.067333    0.467333    0.300667     0.004307
NI1710   NI        0.100667    0.434000    0.300667     0.004307
NI1711   NI        0.100667    0.467333    0.334000     0.004307
CU1712   CU        0.134000    0.434000    0.334000     0.006663
NI1713   NI        0.134000    0.467333    0.300667     0.004307
CU1714   CU        0.167333    0.434000    0.300667     0.006663
CU1715   CU        0.167333    0.467333    0.334000     0.006663
CU1716   CU        0.200667    0.434000    0.334000     0.006663
CU1717   CU        0.200667    0.467333    0.300667     0.006663
CU1718   CU        0.234000    0.434000    0.300667     0.006663
CU1719   CU        0.234000    0.467333    0.334000     0.006663
CU1720   CU        0.267333    0.434000    0.334000     0.006663
CU1721   CU        0.267333    0.467333    0.300667     0.006663
CU1722   CU        0.300667    0.434000    0.300667     0.006663
CU1723   CU        0.300667    0.467333    0.334000     0.006663
CU1724   CU        0.334000    0.434000    0.334000     0.006663
CU1725   CU        0.334000    0.467333    0.300667     0.006663
CU1726   CU        0.367333    0.434000    0.300667     0.006663
CU1727   CU        0.367333    0.467333    0.334000     0.006663
CU1728   CU        0.400667    0.434000    0.334000     0.006663
CU1729   CU        0.400667    0.467333    0.300667     0.006663
CU1730   CU        0.434000    0.434000    0.300667     0.006663
CU1731   CU        0.434000    0.467333    0.334000     0.006663
CU1732   CU        0.467333    0.434000    0.334000     0.006663
CU1733   CU        0.467333    0.467333    0.300667     0.006663
CU1734   CU        0.500667    0.434000    0.300667     0.006663
CU1735   CU        0.500667    0.467333    0.334000     0.006663
CU1736   CU        0.534000    0.434000    0.334000     0.006663
CU1737   CU        0.534000    0.467333    0.300667     0.006663
CU1738   CU        0.567333    0.434000    0.300667     0.006663
CU1739   CU        0.567333    0.467333    0.334000     0.006663
CU1740   CU        0.600667    0.434000    0.334000     0.006663
CU1741   CU        0.600667    0.467333    0.300667     0.006663
CU1742   CU        0.634000    0.434000    0.300667     0.006663
CU1743   CU        0.634000    0.467333    0.334000     0.006663
CU1744   CU        0.667333    0.434000    0.334000     0.006663
CU1745   CU        0.667333    0.467333    0.300667     0.006663
CU1746   CU        0.700667    0.434000    0.300667     0.006663
CU1747   CU        0.700667    0.467333    0.334000     0.006663
CU1748   CU        0.734000    0.434000    0.334000     0.006663
NI1749   NI        0.734000    0.467333    0.300667     0.004307
NI1750   NI        0.767333    0.434000    0.300667     0.004307
NI1751   NI        0.767333    0.467333    0.334000     0.004307
NI1752   NI        0.800667    0.434000    0.334000     0.004307
NI1753   NI        0.800667    0.467333    0.300667     0.004307
NI1754   NI        0.834000    0.434000    0.300667     0.004307
NI1755   NI        0.834000    0.467333    0.334000     0.004307
NI1756   NI        0.867333    0.434000    0.334000     0.004307
NI1757   NI        0.867333    0.467333    0.300667     0.004307
NI1758   NI        0.000667    0.500667    0.334000     0.004307
NI1759   NI        0.034000    0.500667    0.300667     0.004307
NI1760   NI        0.034000    0.534000    0.334000     0.004307
NI1761   NI        0.067333    0.500667    0.334000     0.004307
NI1762   NI        0.067333    0.534000    0.300667     0.004307
NI1763   NI        0.100667    0.500667    0.300667     0.004307
NI1764   NI        0.100667    0.534000    0.334000     0.004307
NI1765   NI        0.134000    0.500667    0.334000     0.004307
NI1766   NI        0.134000    0.534000    0.300667     0.004307
CU1767   CU        0.167333    0.500667    0.300667     0.006663
CU1768   CU        0.167333    0.534000    0.334000     0.006663
CU1769   CU        0.200667    0.500667    0.334000     0.006663
CU1770   CU        0.200667    0.534000    0.300667     0.006663
CU1771   CU        0.234000    0.500667    0.300667     0.006663
CU1772   CU        0.234000    0.534000    0.334000     0.006663
CU1773   CU        0.267333    0.500667    0.334000     0.006663
CU1774   CU        0.267333    0.534000    0.300667     0.006663
CU1775   CU        0.300667    0.500667    0.300667     0.006663
CU1776   CU        0.300667    0.534000    0.334000     0.006663
CU1777   CU        0.334000    0.500667    0.334000     0.006663
CU1778   CU        0.334000    0.534000    0.300667     0.006663
CU1779   CU        0.367333    0.500667    0.300667     0.006663
CU1780   CU        0.367333    0.534000    0.334000     0.006663
CU1781   CU        0.400667    0.500667    0.334000     0.006663
CU1782   CU        0.400667    0.534000    0.300667     0.006663
CU1783   CU        0.434000    0.500667    0.300667     0.006663
CU1784   CU        0.434000    0.534000    0.334000     0.006663
CU1785   CU        0.467333    0.500667    0.334000     0.006663
CU1786   CU        0.467333    0.534000    0.300667     0.006663
CU1787   CU        0.500667    0.500667    0.300667     0.006663
CU1788   CU        0.500667    0.534000    0.334000     0.006663
CU1789   CU        0.534000    0.500667    0.334000     0.006663
CU1790   CU        0.534000    0.534000    0.300667     0.006663
CU1791   CU        0.567333    0.500667    0.300667     0.006663
CU1792   CU        0.567333    0.534000    0.334000     0.006663
CU1793   CU        0.600667    0.500667    0.334000     0.006663
CU1794   CU        0.600667    0.534000    0.300667     0.006663
CU1795   CU        0.634000    0.500667    0.300667     0.006663
CU1796   CU        0.634000    0.534000    0.334000     0.006663
CU1797   CU        0.667333    0.500667    0.334000     0.006663
CU1798   CU        0.667333    0.534000    0.300667     0.006663
CU1799   CU        0.700667    0.500667    0.300667     0.006663
CU1800   CU        0.700667    0.534000    0.334000     0.006663
NI1801   NI        0.734000    0.500667    0.334000     0.004307
NI1802   NI        0.734000    0.534000    0.300667     0.004307
NI1803   NI        0.767333    0.500667    0.300667     0.004307
NI1804   NI        0.767333    0.534000    0.334000     0.004307
NI1805   NI        0.800667    0.500667    0.334000     0.004307
NI1806   NI        0.800667    0.534000    0.300667     0.004307
NI1807   NI        0.834000    0.500667    0.300667     0.004307
NI1808   NI        0.834000    0.534000    0.334000     0.004307
NI1809   NI        0.867333    0.500667    0.334000     0.004307
NI1810   NI        0.034000    0.567333    0.300667     0.004307
NI1811   NI        0.034000    0.600667    0.334000     0.004307
NI1812   NI        0.067333    0.567333    0.334000     0.004307
NI1813   NI        0.067333    0.600667    0.300667     0.004307
NI1814   NI        0.100667    0.567333    0.300667     0.004307
NI1815   NI        0.100667    0.600667    0.334000     0.004307
NI1816   NI        0.134000    0.567333    0.334000     0.004307
NI1817   NI        0.134000    0.600667    0.300667     0.004307
NI1818   NI        0.167333    0.567333    0.300667     0.004307
NI1819   NI        0.167333    0.600667    0.334000     0.004307
CU1820   CU        0.200667    0.567333    0.334000     0.006663
CU1821   CU        0.200667    0.600667    0.300667     0.006663
CU1822   CU        0.234000    0.567333    0.300667     0.006663
CU1823   CU        0.234000    0.600667    0.334000     0.006663
CU1824   CU        0.267333    0.567333    0.334000     0.006663
CU1825   CU        0.267333    0.600667    0.300667     0.006663
CU1826   CU        0.300667    0.567333    0.300667     0.006663
CU1827   CU        0.300667    0.600667    0.334000     0.006663
CU1828   CU        0.334000    0.567333    0.334000     0.006663
CU1829   CU        0.334000    0.600667    0.300667     0.006663
CU1830   CU        0.367333    0.567333    0.300667     0.006663
CU1831   CU        0.367333    0.600667    0.334000     0.006663
CU1832   CU        0.400667    0.567333    0.334000     0.006663
CU1833   CU        0.400667    0.600667    0.300667     0.006663
CU1834   CU        0.434000    0.567333    0.300667     0.006663
CU1835   CU        0.434000    0.600667    0.334000     0.006663
CU1836   CU        0.467333    0.567333    0.334000     0.006663
CU1837   CU        0.467333    0.600667    0.300667     0.006663
CU1838   CU        0.500667    0.567333    0.300667     0.006663
CU1839   CU        0.500667    0.600667    0.334000     0.006663
CU1840   CU        0.534000    0.567333    0.334000     0.006663
CU1841   CU        0.534000    0.600667    0.300667     0.006663
CU1842   CU        0.567333    0.567333    0.300667     0.006663
CU1843   CU        0.567333    0.600667    0.334000     0.006663
CU1844   CU        0.600667    0.567333    0.334000     0.006663
CU1845   CU        0.600667    0.600667    0.300667     0.006663
CU1846   CU        0.634000    0.567333    0.300667     0.006663
CU1847   CU        0.634000    0.600667    0.334000     0.006663
CU1848   CU        0.667333    0.567333    0.334000     0.006663
CU1849   CU        0.667333    0.600667    0.300667     0.006663
NI1850   NI        0.700667    0.567333    0.300667     0.004307
NI1851   NI        0.700667    0.600667    0.334000     0.004307
NI1852   NI        0.734000    0.567333    0.334000     0.004307
NI1853   NI        0.734000    0.600667    0.300667     0.004307
NI1854   NI        0.767333    0.567333    0.300667     0.004307
NI1855   NI        0.767333    0.600667    0.334000     0.004307
NI1856   NI        0.800667    0.567333    0.334000     0.004307
NI1857   NI        0.800667    0.600667    0.300667     0.004307
NI1858   NI        0.834000    0.567333    0.300667     0.004307
NI1859   NI        0.834000    0.600667    0.334000     0.004307
NI1860   NI        0.067333    0.634000    0.334000     0.004307
NI1861   NI        0.067333    0.667333    0.300667     0.004307
NI1862   NI        0.100667    0.634000    0.300667     0.004307
NI1863   NI        0.100667    0.667333    0.334000     0.004307
NI1864   NI        0.134000    0.634000    0.334000     0.004307
NI1865   NI        0.134000    0.667333    0.300667     0.004307
NI1866   NI        0.167333    0.634000    0.300667     0.004307
NI1867   NI        0.167333    0.667333    0.334000     0.004307
NI1868   NI        0.200667    0.634000    0.334000     0.004307
NI1869   NI        0.200667    0.667333    0.300667     0.004307
CU1870   CU        0.234000    0.634000    0.300667     0.006663
NI1871   NI        0.234000    0.667333    0.334000     0.004307
CU1872   CU        0.267333    0.634000    0.334000     0.006663
CU1873   CU        0.267333    0.667333    0.300667     0.006663
CU1874   CU        0.300667    0.634000    0.300667     0.006663
CU1875   CU        0.300667    0.667333    0.334000     0.006663
CU1876   CU        0.334000    0.634000    0.334000     0.006663
CU1877   CU        0.334000    0.667333    0.300667     0.006663
CU1878   CU        0.367333    0.634000    0.300667     0.006663
CU1879   CU        0.367333    0.667333    0.334000     0.006663
CU1880   CU        0.400667    0.634000    0.334000     0.006663
CU1881   CU        0.400667    0.667333    0.300667     0.006663
CU1882   CU        0.434000    0.634000    0.300667     0.006663
CU1883   CU        0.434000    0.667333    0.334000     0.006663
CU1884   CU        0.467333    0.634000    0.334000     0.006663
CU1885   CU        0.467333    0.667333    0.300667     0.006663
CU1886   CU        0.500667    0.634000    0.300667     0.006663
CU1887   CU        0.500667    0.667333    0.334000     0.006663
CU1888   CU        0.534000    0.634000    0.334000     0.006663
CU1889   CU        0.534000    0.667333    0.300667     0.006663
CU1890   CU        0.567333    0.634000    0.300667     0.006663
CU1891   CU        0.567333    0.667333    0.334000     0.006663
CU1892   CU        0.600667    0.634000    0.334000     0.006663
CU1893   CU        0.600667    0.667333    0.300667     0.006663
CU1894   CU        0.634000    0.634000    0.300667     0.006663
NI1895   NI        0.634000    0.667333    0.334000     0.004307
NI1896   NI        0.667333    0.634000    0.334000     0.004307
NI1897   NI        0.667333    0.667333    0.300667     0.004307
NI1898   NI        0.700667    0.634000    0.300667     0.004307
NI1899   NI        0.700667    0.667333    0.334000     0.004307
NI1900   NI        0.734000    0.634000    0.334000     0.004307
NI1901   NI        0.734000    0.667333    0.300667     0.004307
NI1902   NI        0.767333    0.634000    0.300667     0.004307
NI1903   NI        0.767333    0.667333    0.334000     0.004307
NI1904   NI        0.800667    0.634000    0.334000     0.004307
NI1905   NI        0.800667    0.667333    0.300667     0.004307
NI1906   NI        0.100667    0.700667    0.300667     0.004307
NI1907   NI        0.100667    0.734000    0.334000     0.004307
NI1908   NI        0.134000    0.700667    0.334000     0.004307
NI1909   NI        0.134000    0.734000    0.300667     0.004307
NI1910   NI        0.167333    0.700667    0.300667     0.004307
NI1911   NI        0.167333    0.734000    0.334000     0.004307
NI1912   NI        0.200667    0.700667    0.334000     0.004307
NI1913   NI        0.200667    0.734000    0.300667     0.004307
NI1914   NI        0.234000    0.700667    0.300667     0.004307
NI1915   NI        0.234000    0.734000    0.334000     0.004307
NI1916   NI        0.267333    0.700667    0.334000     0.004307
NI1917   NI        0.267333    0.734000    0.300667     0.004307
NI1918   NI        0.300667    0.700667    0.300667     0.004307
NI1919   NI        0.300667    0.734000    0.334000     0.004307
CU1920   CU        0.334000    0.700667    0.334000     0.006663
NI1921   NI        0.334000    0.734000    0.300667     0.004307
CU1922   CU        0.367333    0.700667    0.300667     0.006663
NI1923   NI        0.367333    0.734000    0.334000     0.004307
CU1924   CU        0.400667    0.700667    0.334000     0.006663
NI1925   NI        0.400667    0.734000    0.300667     0.004307
CU1926   CU        0.434000    0.700667    0.300667     0.006663
CU1927   CU        0.434000    0.734000    0.334000     0.006663
CU1928   CU        0.467333    0.700667    0.334000     0.006663
NI1929   NI        0.467333    0.734000    0.300667     0.004307
CU1930   CU        0.500667    0.700667    0.300667     0.006663
NI1931   NI        0.500667    0.734000    0.334000     0.004307
CU1932   CU        0.534000    0.700667    0.334000     0.006663
NI1933   NI        0.534000    0.734000    0.300667     0.004307
NI1934   NI        0.567333    0.700667    0.300667     0.004307
NI1935   NI        0.567333    0.734000    0.334000     0.004307
NI1936   NI        0.600667    0.700667    0.334000     0.004307
NI1937   NI        0.600667    0.734000    0.300667     0.004307
NI1938   NI        0.634000    0.700667    0.300667     0.004307
NI1939   NI        0.634000    0.734000    0.334000     0.004307
NI1940   NI        0.667333    0.700667    0.334000     0.004307
NI1941   NI        0.667333    0.734000    0.300667     0.004307
NI1942   NI        0.700667    0.700667    0.300667     0.004307
NI1943   NI        0.700667    0.734000    0.334000     0.004307
NI1944   NI        0.734000    0.700667    0.334000     0.004307
NI1945   NI        0.734000    0.734000    0.300667     0.004307
NI1946   NI        0.767333    0.700667    0.300667     0.004307
NI1947   NI        0.767333    0.734000    0.334000     0.004307
NI1948   NI        0.134000    0.767333    0.334000     0.004307
NI1949   NI        0.167333    0.767333    0.300667     0.004307
NI1950   NI        0.200667    0.767333    0.334000     0.004307
NI1951   NI        0.200667    0.800667    0.300667     0.004307
NI1952   NI        0.234000    0.767333    0.300667     0.004307
NI1953   NI        0.234000    0.800667    0.334000     0.004307
NI1954   NI        0.267333    0.767333    0.334000     0.004307
NI1955   NI        0.267333    0.800667    0.300667     0.004307
NI1956   NI        0.300667    0.767333    0.300667     0.004307
NI1957   NI        0.300667    0.800667    0.334000     0.004307
NI1958   NI        0.334000    0.767333    0.334000     0.004307
NI1959   NI        0.334000    0.800667    0.300667     0.004307
NI1960   NI        0.367333    0.767333    0.300667     0.004307
NI1961   NI        0.367333    0.800667    0.334000     0.004307
NI1962   NI        0.400667    0.767333    0.334000     0.004307
NI1963   NI        0.400667    0.800667    0.300667     0.004307
NI1964   NI        0.434000    0.767333    0.300667     0.004307
NI1965   NI        0.434000    0.800667    0.334000     0.004307
NI1966   NI        0.467333    0.767333    0.334000     0.004307
NI1967   NI        0.467333    0.800667    0.300667     0.004307
NI1968   NI        0.500667    0.767333    0.300667     0.004307
NI1969   NI        0.500667    0.800667    0.334000     0.004307
NI1970   NI        0.534000    0.767333    0.334000     0.004307
NI1971   NI        0.534000    0.800667    0.300667     0.004307
NI1972   NI        0.567333    0.767333    0.300667     0.004307
NI1973   NI        0.567333    0.800667    0.334000     0.004307
NI1974   NI        0.600667    0.767333    0.334000     0.004307
NI1975   NI        0.600667    0.800667    0.300667     0.004307
NI1976   NI        0.634000    0.767333    0.300667     0.004307
NI1977   NI        0.634000    0.800667    0.334000     0.004307
NI1978   NI        0.667333    0.767333    0.334000     0.004307
NI1979   NI        0.667333    0.800667    0.300667     0.004307
NI1980   NI        0.700667    0.767333    0.300667     0.004307
NI1981   NI        0.734000    0.767333    0.334000     0.004307
NI1982   NI        0.267333    0.834000    0.334000     0.004307
NI1983   NI        0.300667    0.834000    0.300667     0.004307
NI1984   NI        0.334000    0.834000    0.334000     0.004307
NI1985   NI        0.367333    0.834000    0.300667     0.004307
NI1986   NI        0.367333    0.867333    0.334000     0.004307
NI1987   NI        0.400667    0.834000    0.334000     0.004307
NI1988   NI        0.400667    0.867333    0.300667     0.004307
NI1989   NI        0.434000    0.834000    0.300667     0.004307
NI1990   NI        0.434000    0.867333    0.334000     0.004307
NI1991   NI        0.467333    0.834000    0.334000     0.004307
NI1992   NI        0.467333    0.867333    0.300667     0.004307
NI1993   NI        0.500667    0.834000    0.300667     0.004307
NI1994   NI        0.500667    0.867333    0.334000     0.004307
NI1995   NI        0.534000    0.834000    0.334000     0.004307
NI1996   NI        0.567333    0.834000    0.300667     0.004307
NI1997   NI        0.600667    0.834000    0.334000     0.004307
NI1998   NI        0.300667    0.000667    0.400667     0.004307
NI1999   NI        0.334000    0.000667    0.367333     0.004307
NI2000   NI        0.367333    0.000667    0.400667     0.004307
NI2001   NI        0.400667    0.000667    0.367333     0.004307
NI2002   NI        0.434000    0.000667    0.400667     0.004307
NI2003   NI        0.467333    0.000667    0.367333     0.004307
NI2004   NI        0.500667    0.000667    0.400667     0.004307
NI2005   NI        0.534000    0.000667    0.367333     0.004307
NI2006   NI        0.567333    0.000667    0.400667     0.004307
NI2007   NI        0.167333    0.067333    0.400667     0.004307
NI2008   NI        0.200667    0.067333    0.367333     0.004307
NI2009   NI        0.234000    0.034000    0.367333     0.004307
NI2010   NI        0.234000    0.067333    0.400667     0.004307
NI2011   NI        0.267333    0.034000    0.400667     0.004307
NI2012   NI        0.267333    0.067333    0.367333     0.004307
NI2013   NI        0.300667    0.034000    0.367333     0.004307
NI2014   NI        0.300667    0.067333    0.400667     0.004307
NI2015   NI        0.334000    0.034000    0.400667     0.004307
NI2016   NI        0.334000    0.067333    0.367333     0.004307
NI2017   NI        0.367333    0.034000    0.367333     0.004307
NI2018   NI        0.367333    0.067333    0.400667     0.004307
NI2019   NI        0.400667    0.034000    0.400667     0.004307
NI2020   NI        0.400667    0.067333    0.367333     0.004307
NI2021   NI        0.434000    0.034000    0.367333     0.004307
NI2022   NI        0.434000    0.067333    0.400667     0.004307
NI2023   NI        0.467333    0.034000    0.400667     0.004307
NI2024   NI        0.467333    0.067333    0.367333     0.004307
NI2025   NI        0.500667    0.034000    0.367333     0.004307
NI2026   NI        0.500667    0.067333    0.400667     0.004307
NI2027   NI        0.534000    0.034000    0.400667     0.004307
NI2028   NI        0.534000    0.067333    0.367333     0.004307
NI2029   NI        0.567333    0.034000    0.367333     0.004307
NI2030   NI        0.567333    0.067333    0.400667     0.004307
NI2031   NI        0.600667    0.034000    0.400667     0.004307
NI2032   NI        0.600667    0.067333    0.367333     0.004307
NI2033   NI        0.634000    0.034000    0.367333     0.004307
NI2034   NI        0.634000    0.067333    0.400667     0.004307
NI2035   NI        0.667333    0.067333    0.367333     0.004307
NI2036   NI        0.700667    0.067333    0.400667     0.004307
NI2037   NI        0.100667    0.134000    0.400667     0.004307
NI2038   NI        0.134000    0.100667    0.400667     0.004307
NI2039   NI        0.134000    0.134000    0.367333     0.004307
NI2040   NI        0.167333    0.100667    0.367333     0.004307
NI2041   NI        0.167333    0.134000    0.400667     0.004307
NI2042   NI        0.200667    0.100667    0.400667     0.004307
NI2043   NI        0.200667    0.134000    0.367333     0.004307
NI2044   NI        0.234000    0.100667    0.367333     0.004307
NI2045   NI        0.234000    0.134000    0.400667     0.004307
NI2046   NI        0.267333    0.100667    0.400667     0.004307
NI2047   NI        0.267333    0.134000    0.367333     0.004307
NI2048   NI        0.300667    0.100667    0.367333     0.004307
NI2049   NI        0.300667    0.134000    0.400667     0.004307
NI2050   NI        0.334000    0.100667    0.400667     0.004307
NI2051   NI        0.334000    0.134000    0.367333     0.004307
NI2052   NI        0.367333    0.100667    0.367333     0.004307
CU2053   CU        0.367333    0.134000    0.400667     0.006663
NI2054   NI        0.400667    0.100667    0.400667     0.004307
CU2055   CU        0.400667    0.134000    0.367333     0.006663
NI2056   NI        0.434000    0.100667    0.367333     0.004307
CU2057   CU        0.434000    0.134000    0.400667     0.006663
NI2058   NI        0.467333    0.100667    0.400667     0.004307
CU2059   CU        0.467333    0.134000    0.367333     0.006663
NI2060   NI        0.500667    0.100667    0.367333     0.004307
CU2061   CU        0.500667    0.134000    0.400667     0.006663
NI2062   NI        0.534000    0.100667    0.400667     0.004307
NI2063   NI        0.534000    0.134000    0.367333     0.004307
NI2064   NI        0.567333    0.100667    0.367333     0.004307
NI2065   NI        0.567333    0.134000    0.400667     0.004307
NI2066   NI        0.600667    0.100667    0.400667     0.004307
NI2067   NI        0.600667    0.134000    0.367333     0.004307
NI2068   NI        0.634000    0.100667    0.367333     0.004307
NI2069   NI        0.634000    0.134000    0.400667     0.004307
NI2070   NI        0.667333    0.100667    0.400667     0.004307
NI2071   NI        0.667333    0.134000    0.367333     0.004307
NI2072   NI        0.700667    0.100667    0.367333     0.004307
NI2073   NI        0.700667    0.134000    0.400667     0.004307
NI2074   NI        0.734000    0.100667    0.400667     0.004307
NI2075   NI        0.734000    0.134000    0.367333     0.004307
NI2076   NI        0.767333    0.134000    0.400667     0.004307
NI2077   NI        0.067333    0.167333    0.400667     0.004307
NI2078   NI        0.067333    0.200667    0.367333     0.004307
NI2079   NI        0.100667    0.167333    0.367333     0.004307
NI2080   NI        0.100667    0.200667    0.400667     0.004307
NI2081   NI        0.134000    0.167333    0.400667     0.004307
NI2082   NI        0.134000    0.200667    0.367333     0.004307
NI2083   NI        0.167333    0.167333    0.367333     0.004307
NI2084   NI        0.167333    0.200667    0.400667     0.004307
NI2085   NI        0.200667    0.167333    0.400667     0.004307
NI2086   NI        0.200667    0.200667    0.367333     0.004307
NI2087   NI        0.234000    0.167333    0.367333     0.004307
CU2088   CU        0.234000    0.200667    0.400667     0.006663
CU2089   CU        0.267333    0.167333    0.400667     0.006663
CU2090   CU        0.267333    0.200667    0.367333     0.006663
CU2091   CU        0.300667    0.167333    0.367333     0.006663
CU2092   CU        0.300667    0.200667    0.400667     0.006663
CU2093   CU        0.334000    0.167333    0.400667     0.006663
CU2094   CU        0.334000    0.200667    0.367333     0.006663
CU2095   CU        0.367333    0.167333    0.367333     0.006663
CU2096   CU        0.367333    0.200667    0.400667     0.006663
CU2097   CU        0.400667    0.167333    0.400667     0.006663
CU2098   CU        0.400667    0.200667    0.367333     0.006663
CU2099   CU        0.434000    0.167333    0.367333     0.006663
CU2100   CU        0.434000    0.200667    0.400667     0.006663
CU2101   CU        0.467333    0.167333    0.400667     0.006663
CU2102   CU        0.467333    0.200667    0.367333     0.006663
CU2103   CU        0.500667    0.167333    0.367333     0.006663
CU2104   CU        0.500667    0.200667    0.400667     0.006663
CU2105   CU        0.534000    0.167333    0.400667     0.006663
CU2106   CU        0.534000    0.200667    0.367333     0.006663
CU2107   CU        0.567333    0.167333    0.367333     0.006663
CU2108   CU        0.567333    0.200667    0.400667     0.006663
CU2109   CU        0.600667    0.167333    0.400667     0.006663
CU2110   CU        0.600667    0.200667    0.367333     0.006663
NI2111   NI        0.634000    0.167333    0.367333     0.004307
CU2112   CU        0.634000    0.200667    0.400667     0.006663
NI2113   NI        0.667333    0.167333    0.400667     0.004307
NI2114   NI        0.667333    0.200667    0.367333     0.004307
NI2115   NI        0.700667    0.167333    0.367333     0.004307
NI2116   NI        0.700667    0.200667    0.400667     0.004307
NI2117   NI        0.734000    0.167333    0.400667     0.004307
NI2118   NI        0.734000    0.200667    0.367333     0.004307
NI2119   NI        0.767333    0.167333    0.367333     0.004307
NI2120   NI        0.767333    0.200667    0.400667     0.004307
NI2121   NI        0.800667    0.167333    0.400667     0.004307
NI2122   NI        0.800667    0.200667    0.367333     0.004307
NI2123   NI        0.034000    0.234000    0.367333     0.004307
NI2124   NI        0.034000    0.267333    0.400667     0.004307
NI2125   NI        0.067333    0.234000    0.400667     0.004307
NI2126   NI        0.067333    0.267333    0.367333     0.004307
NI2127   NI        0.100667    0.234000    0.367333     0.004307
NI2128   NI        0.100667    0.267333    0.400667     0.004307
NI2129   NI        0.134000    0.234000    0.400667     0.004307
NI2130   NI        0.134000    0.267333    0.367333     0.004307
NI2131   NI        0.167333    0.234000    0.367333     0.004307
CU2132   CU        0.167333    0.267333    0.400667     0.006663
CU2133   CU        0.200667    0.234000    0.400667     0.006663
CU2134   CU        0.200667    0.267333    0.367333     0.006663
CU2135   CU        0.234000    0.234000    0.367333     0.006663
CU2136   CU        0.234000    0.267333    0.400667     0.006663
CU2137   CU        0.267333    0.234000    0.400667     0.006663
CU2138   CU        0.267333    0.267333    0.367333     0.006663
CU2139   CU        0.300667    0.234000    0.367333     0.006663
CU2140   CU        0.300667    0.267333    0.400667     0.006663
CU2141   CU        0.334000    0.234000    0.400667     0.006663
CU2142   CU        0.334000    0.267333    0.367333     0.006663
CU2143   CU        0.367333    0.234000    0.367333     0.006663
CU2144   CU        0.367333    0.267333    0.400667     0.006663
CU2145   CU        0.400667    0.234000    0.400667     0.006663
CU2146   CU        0.400667    0.267333    0.367333     0.006663
CU2147   CU        0.434000    0.234000    0.367333     0.006663
CU2148   CU        0.434000    0.267333    0.400667     0.006663
CU2149   CU        0.467333    0.234000    0.400667     0.006663
CU2150   CU        0.467333    0.267333    0.367333     0.006663
CU2151   CU        0.500667    0.234000    0.367333     0.006663
CU2152   CU        0.500667    0.267333    0.400667     0.006663
CU2153   CU        0.534000    0.234000    0.400667     0.006663
CU2154   CU        0.534000    0.267333    0.367333     0.006663
CU2155   CU        0.567333    0.234000    0.367333     0.006663
CU2156   CU        0.567333    0.267333    0.400667     0.006663
CU2157   CU        0.600667    0.234000    0.400667     0.006663
CU2158   CU        0.600667    0.267333    0.367333     0.006663
CU2159   CU        0.634000    0.234000    0.367333     0.006663
CU2160   CU        0.634000    0.267333    0.400667     0.006663
CU2161   CU        0.667333    0.234000    0.400667     0.006663
CU2162   CU        0.667333    0.267333    0.367333     0.006663
NI2163   NI        0.700667    0.234000    0.367333     0.004307
CU2164   CU        0.700667    0.267333    0.400667     0.006663
NI2165   NI        0.734000    0.234000    0.400667     0.004307
NI2166   NI        0.734000    0.267333    0.367333     0.004307
NI2167   NI        0.767333    0.234000    0.367333     0.004307
NI2168   NI        0.767333    0.267333    0.400667     0.004307
NI2169   NI        0.800667    0.234000    0.400667     0.004307
NI2170   NI        0.800667    0.267333    0.367333     0.004307
NI2171   NI        0.834000    0.234000    0.367333     0.004307
NI2172   NI        0.834000    0.267333    0.400667     0.004307
NI2173   NI        0.000667    0.300667    0.400667     0.004307
NI2174   NI        0.000667    0.334000    0.367333     0.004307
NI2175   NI        0.034000    0.300667    0.367333     0.004307
NI2176   NI        0.034000    0.334000    0.400667     0.004307
NI2177   NI        0.067333    0.300667    0.400667     0.004307
NI2178   NI        0.067333    0.334000    0.367333     0.004307
NI2179   NI        0.100667    0.300667    0.367333     0.004307
NI2180   NI        0.100667    0.334000    0.400667     0.004307
NI2181   NI        0.134000    0.300667    0.400667     0.004307
NI2182   NI        0.134000    0.334000    0.367333     0.004307
CU2183   CU        0.167333    0.300667    0.367333     0.006663
CU2184   CU        0.167333    0.334000    0.400667     0.006663
CU2185   CU        0.200667    0.300667    0.400667     0.006663
CU2186   CU        0.200667    0.334000    0.367333     0.006663
CU2187   CU        0.234000    0.300667    0.367333     0.006663
CU2188   CU        0.234000    0.334000    0.400667     0.006663
CU2189   CU        0.267333    0.300667    0.400667     0.006663
CU2190   CU        0.267333    0.334000    0.367333     0.006663
CU2191   CU        0.300667    0.300667    0.367333     0.006663
CU2192   CU        0.300667    0.334000    0.400667     0.006663
CU2193   CU        0.334000    0.300667    0.400667     0.006663
CU2194   CU        0.334000    0.334000    0.367333     0.006663
CU2195   CU        0.367333    0.300667    0.367333     0.006663
CU2196   CU        0.367333    0.334000    0.400667     0.006663
CU2197   CU        0.400667    0.300667    0.400667     0.006663
CU2198   CU        0.400667    0.334000    0.367333     0.006663
CU2199   CU        0.434000    0.300667    0.367333     0.006663
CU2200   CU        0.434000    0.334000    0.400667     0.006663
CU2201   CU        0.467333    0.300667    0.400667     0.006663
CU2202   CU        0.467333    0.334000    0.367333     0.006663
CU2203   CU        0.500667    0.300667    0.367333     0.006663
CU2204   CU        0.500667    0.334000    0.400667     0.006663
CU2205   CU        0.534000    0.300667    0.400667     0.006663
CU2206   CU        0.534000    0.334000    0.367333     0.006663
CU2207   CU        0.567333    0.300667    0.367333     0.006663
CU2208   CU        0.567333    0.334000    0.400667     0.006663
CU2209   CU        0.600667    0.300667    0.400667     0.006663
CU2210   CU        0.600667    0.334000    0.367333     0.006663
CU2211   CU        0.634000    0.300667    0.367333     0.006663
CU2212   CU        0.634000    0.334000    0.400667     0.006663
CU2213   CU        0.667333    0.300667    0.400667     0.006663
CU2214   CU        0.667333    0.334000    0.367333     0.006663
CU2215   CU        0.700667    0.300667    0.367333     0.006663
CU2216   CU        0.700667    0.334000    0.400667     0.006663
NI2217   NI        0.734000    0.300667    0.400667     0.004307
NI2218   NI        0.734000    0.334000    0.367333     0.004307
NI2219   NI        0.767333    0.300667    0.367333     0.004307
NI2220   NI        0.767333    0.334000    0.400667     0.004307
NI2221   NI        0.800667    0.300667    0.400667     0.004307
NI2222   NI        0.800667    0.334000    0.367333     0.004307
NI2223   NI        0.834000    0.300667    0.367333     0.004307
NI2224   NI        0.834000    0.334000    0.400667     0.004307
NI2225   NI        0.867333    0.300667    0.400667     0.004307
NI2226   NI        0.867333    0.334000    0.367333     0.004307
NI2227   NI        0.000667    0.367333    0.400667     0.004307
NI2228   NI        0.000667    0.400667    0.367333     0.004307
NI2229   NI        0.034000    0.367333    0.367333     0.004307
NI2230   NI        0.034000    0.400667    0.400667     0.004307
NI2231   NI        0.067333    0.367333    0.400667     0.004307
NI2232   NI        0.067333    0.400667    0.367333     0.004307
NI2233   NI        0.100667    0.367333    0.367333     0.004307
NI2234   NI        0.100667    0.400667    0.400667     0.004307
CU2235   CU        0.134000    0.367333    0.400667     0.006663
CU2236   CU        0.134000    0.400667    0.367333     0.006663
CU2237   CU        0.167333    0.367333    0.367333     0.006663
CU2238   CU        0.167333    0.400667    0.400667     0.006663
CU2239   CU        0.200667    0.367333    0.400667     0.006663
CU2240   CU        0.200667    0.400667    0.367333     0.006663
CU2241   CU        0.234000    0.367333    0.367333     0.006663
CU2242   CU        0.234000    0.400667    0.400667     0.006663
CU2243   CU        0.267333    0.367333    0.400667     0.006663
CU2244   CU        0.267333    0.400667    0.367333     0.006663
CU2245   CU        0.300667    0.367333    0.367333     0.006663
CU2246   CU        0.300667    0.400667    0.400667     0.006663
CU2247   CU        0.334000    0.367333    0.400667     0.006663
CU2248   CU        0.334000    0.400667    0.367333     0.006663
CU2249   CU        0.367333    0.367333    0.367333     0.006663
CU2250   CU        0.367333    0.400667    0.400667     0.006663
CU2251   CU        0.400667    0.367333    0.400667     0.006663
CU2252   CU        0.400667    0.400667    0.367333     0.006663
CU2253   CU        0.434000    0.367333    0.367333     0.006663
CU2254   CU        0.434000    0.400667    0.400667     0.006663
CU2255   CU        0.467333    0.367333    0.400667     0.006663
CU2256   CU        0.467333    0.400667    0.367333     0.006663
CU2257   CU        0.500667    0.367333    0.367333     0.006663
CU2258   CU        0.500667    0.400667    0.400667     0.006663
CU2259   CU        0.534000    0.367333    0.400667     0.006663
CU2260   CU        0.534000    0.400667    0.367333     0.006663
CU2261   CU        0.567333    0.367333    0.367333     0.006663
CU2262   CU        0.567333    0.400667    0.400667     0.006663
CU2263   CU        0.600667    0.367333    0.400667     0.006663
CU2264   CU        0.600667    0.400667    0.367333     0.006663
CU2265   CU        0.634000    0.367333    0.367333     0.006663
CU2266   CU        0.634000    0.400667    0.400667     0.006663
CU2267   CU        0.667333    0.367333    0.400667     0.006663
CU2268   CU        0.667333    0.400667    0.367333     0.006663
CU2269   CU        0.700667    0.367333    0.367333     0.006663
CU2270   CU        0.700667    0.400667    0.400667     0.006663
CU2271   CU        0.734000    0.367333    0.400667     0.006663
CU2272   CU        0.734000    0.400667    0.367333     0.006663
NI2273   NI        0.767333    0.367333    0.367333     0.004307
NI2274   NI        0.767333    0.400667    0.400667     0.004307
NI2275   NI        0.800667    0.367333    0.400667     0.004307
NI2276   NI        0.800667    0.400667    0.367333     0.004307
NI2277   NI        0.834000    0.367333    0.367333     0.004307
NI2278   NI        0.834000    0.400667    0.400667     0.004307
NI2279   NI        0.867333    0.367333    0.400667     0.004307
NI2280   NI        0.867333    0.400667    0.367333     0.004307
NI2281   NI        0.000667    0.434000    0.400667     0.004307
NI2282   NI        0.000667    0.467333    0.367333     0.004307
NI2283   NI        0.034000    0.434000    0.367333     0.004307
NI2284   NI        0.034000    0.467333    0.400667     0.004307
NI2285   NI        0.067333    0.434000    0.400667     0.004307
NI2286   NI        0.067333    0.467333    0.367333     0.004307
NI2287   NI        0.100667    0.434000    0.367333     0.004307
NI2288   NI        0.100667    0.467333    0.400667     0.004307
CU2289   CU        0.134000    0.434000    0.400667     0.006663
CU2290   CU        0.134000    0.467333    0.367333     0.006663
CU2291   CU        0.167333    0.434000    0.367333     0.006663
CU2292   CU        0.167333    0.467333    0.400667     0.006663
CU2293   CU        0.200667    0.434000    0.400667     0.006663
CU2294   CU        0.200667    0.467333    0.367333     0.006663
CU2295   CU        0.234000    0.434000    0.367333     0.006663
CU2296   CU        0.234000    0.467333    0.400667     0.006663
CU2297   CU        0.267333    0.434000    0.400667     0.006663
CU2298   CU        0.267333    0.467333    0.367333     0.006663
CU2299   CU        0.300667    0.434000    0.367333     0.006663
CU2300   CU        0.300667    0.467333    0.400667     0.006663
CU2301   CU        0.334000    0.434000    0.400667     0.006663
CU2302   CU        0.334000    0.467333    0.367333     0.006663
CU2303   CU        0.367333    0.434000    0.367333     0.006663
CU2304   CU        0.367333    0.467333    0.400667     0.006663
CU2305   CU        0.400667    0.434000    0.400667     0.006663
CU2306   CU        0.400667    0.467333    0.367333     0.006663
CU2307   CU        0.434000    0.434000    0.367333     0.006663
CU2308   CU        0.434000    0.467333    0.400667     0.006663
CU2309   CU        0.467333    0.434000    0.400667     0.006663
CU2310   CU        0.467333    0.467333    0.367333     0.006663
CU2311   CU        0.500667    0.434000    0.367333     0.006663
CU2312   CU        0.500667    0.467333    0.400667     0.006663
CU2313   CU        0.534000    0.434000    0.400667     0.006663
CU2314   CU        0.534000    0.467333    0.367333     0.006663
CU2315   CU        0.567333    0.434000    0.367333     0.006663
CU2316   CU        0.567333    0.467333    0.400667     0.006663
CU2317   CU        0.600667    0.434000    0.400667     0.006663
CU2318   CU        0.600667    0.467333    0.367333     0.006663
CU2319   CU        0.634000    0.434000    0.367333     0.006663
CU2320   CU        0.634000    0.467333    0.400667     0.006663
CU2321   CU        0.667333    0.434000    0.400667     0.006663
CU2322   CU        0.667333    0.467333    0.367333     0.006663
CU2323   CU        0.700667    0.434000    0.367333     0.006663
CU2324   CU        0.700667    0.467333    0.400667     0.006663
CU2325   CU        0.734000    0.434000    0.400667     0.006663
CU2326   CU        0.734000    0.467333    0.367333     0.006663
NI2327   NI        0.767333    0.434000    0.367333     0.004307
NI2328   NI        0.767333    0.467333    0.400667     0.004307
NI2329   NI        0.800667    0.434000    0.400667     0.004307
NI2330   NI        0.800667    0.467333    0.367333     0.004307
NI2331   NI        0.834000    0.434000    0.367333     0.004307
NI2332   NI        0.834000    0.467333    0.400667     0.004307
NI2333   NI        0.867333    0.434000    0.400667     0.004307
NI2334   NI        0.867333    0.467333    0.367333     0.004307
NI2335   NI        0.000667    0.500667    0.400667     0.004307
NI2336   NI        0.000667    0.534000    0.367333     0.004307
NI2337   NI        0.034000    0.500667    0.367333     0.004307
NI2338   NI        0.034000    0.534000    0.400667     0.004307
NI2339   NI        0.067333    0.500667    0.400667     0.004307
NI2340   NI        0.067333    0.534000    0.367333     0.004307
NI2341   NI        0.100667    0.500667    0.367333     0.004307
NI2342   NI        0.100667    0.534000    0.400667     0.004307
CU2343   CU        0.134000    0.500667    0.400667     0.006663
NI2344   NI        0.134000    0.534000    0.367333     0.004307
CU2345   CU        0.167333    0.500667    0.367333     0.006663
CU2346   CU        0.167333    0.534000    0.400667     0.006663
CU2347   CU        0.200667    0.500667    0.400667     0.006663
CU2348   CU        0.200667    0.534000    0.367333     0.006663
CU2349   CU        0.234000    0.500667    0.367333     0.006663
CU2350   CU        0.234000    0.534000    0.400667     0.006663
CU2351   CU        0.267333    0.500667    0.400667     0.006663
CU2352   CU        0.267333    0.534000    0.367333     0.006663
CU2353   CU        0.300667    0.500667    0.367333     0.006663
CU2354   CU        0.300667    0.534000    0.400667     0.006663
CU2355   CU        0.334000    0.500667    0.400667     0.006663
CU2356   CU        0.334000    0.534000    0.367333     0.006663
CU2357   CU        0.367333    0.500667    0.367333     0.006663
CU2358   CU        0.367333    0.534000    0.400667     0.006663
CU2359   CU        0.400667    0.500667    0.400667     0.006663
CU2360   CU        0.400667    0.534000    0.367333     0.006663
CU2361   CU        0.434000    0.500667    0.367333     0.006663
CU2362   CU        0.434000    0.534000    0.400667     0.006663
CU2363   CU        0.467333    0.500667    0.400667     0.006663
CU2364   CU        0.467333    0.534000    0.367333     0.006663
CU2365   CU        0.500667    0.500667    0.367333     0.006663
CU2366   CU        0.500667    0.534000    0.400667     0.006663
CU2367   CU        0.534000    0.500667    0.400667     0.006663
CU2368   CU        0.534000    0.534000    0.367333     0.006663
CU2369   CU        0.567333    0.500667    0.367333     0.006663
CU2370   CU        0.567333    0.534000    0.400667     0.006663
CU2371   CU        0.600667    0.500667    0.400667     0.006663
CU2372   CU        0.600667    0.534000    0.367333     0.006663
CU2373   CU        0.634000    0.500667    0.367333     0.006663
CU2374   CU        0.634000    0.534000    0.400667     0.006663
CU2375   CU        0.667333    0.500667    0.400667     0.006663
CU2376   CU        0.667333    0.534000    0.367333     0.006663
CU2377   CU        0.700667    0.500667    0.367333     0.006663
CU2378   CU        0.700667    0.534000    0.400667     0.006663
CU2379   CU        0.734000    0.500667    0.400667     0.006663
NI2380   NI        0.734000    0.534000    0.367333     0.004307
NI2381   NI        0.767333    0.500667    0.367333     0.004307
NI2382   NI        0.767333    0.534000    0.400667     0.004307
NI2383   NI        0.800667    0.500667    0.400667     0.004307
NI2384   NI        0.800667    0.534000    0.367333     0.004307
NI2385   NI        0.834000    0.500667    0.367333     0.004307
NI2386   NI        0.834000    0.534000    0.400667     0.004307
NI2387   NI        0.867333    0.500667    0.400667     0.004307
NI2388   NI        0.867333    0.534000    0.367333     0.004307
NI2389   NI        0.000667    0.567333    0.400667     0.004307
NI2390   NI        0.034000    0.567333    0.367333     0.004307
NI2391   NI        0.034000    0.600667    0.400667     0.004307
NI2392   NI        0.067333    0.567333    0.400667     0.004307
NI2393   NI        0.067333    0.600667    0.367333     0.004307
NI2394   NI        0.100667    0.567333    0.367333     0.004307
NI2395   NI        0.100667    0.600667    0.400667     0.004307
NI2396   NI        0.134000    0.567333    0.400667     0.004307
NI2397   NI        0.134000    0.600667    0.367333     0.004307
CU2398   CU        0.167333    0.567333    0.367333     0.006663
CU2399   CU        0.167333    0.600667    0.400667     0.006663
CU2400   CU        0.200667    0.567333    0.400667     0.006663
CU2401   CU        0.200667    0.600667    0.367333     0.006663
CU2402   CU        0.234000    0.567333    0.367333     0.006663
CU2403   CU        0.234000    0.600667    0.400667     0.006663
CU2404   CU        0.267333    0.567333    0.400667     0.006663
CU2405   CU        0.267333    0.600667    0.367333     0.006663
CU2406   CU        0.300667    0.567333    0.367333     0.006663
CU2407   CU        0.300667    0.600667    0.400667     0.006663
CU2408   CU        0.334000    0.567333    0.400667     0.006663
CU2409   CU        0.334000    0.600667    0.367333     0.006663
CU2410   CU        0.367333    0.567333    0.367333     0.006663
CU2411   CU        0.367333    0.600667    0.400667     0.006663
CU2412   CU        0.400667    0.567333    0.400667     0.006663
CU2413   CU        0.400667    0.600667    0.367333     0.006663
CU2414   CU        0.434000    0.567333    0.367333     0.006663
CU2415   CU        0.434000    0.600667    0.400667     0.006663
CU2416   CU        0.467333    0.567333    0.400667     0.006663
CU2417   CU        0.467333    0.600667    0.367333     0.006663
CU2418   CU        0.500667    0.567333    0.367333     0.006663
CU2419   CU        0.500667    0.600667    0.400667     0.006663
CU2420   CU        0.534000    0.567333    0.400667     0.006663
CU2421   CU        0.534000    0.600667    0.367333     0.006663
CU2422   CU        0.567333    0.567333    0.367333     0.006663
CU2423   CU        0.567333    0.600667    0.400667     0.006663
CU2424   CU        0.600667    0.567333    0.400667     0.006663
CU2425   CU        0.600667    0.600667    0.367333     0.006663
CU2426   CU        0.634000    0.567333    0.367333     0.006663
CU2427   CU        0.634000    0.600667    0.400667     0.006663
CU2428   CU        0.667333    0.567333    0.400667     0.006663
CU2429   CU        0.667333    0.600667    0.367333     0.006663
CU2430   CU        0.700667    0.567333    0.367333     0.006663
CU2431   CU        0.700667    0.600667    0.400667     0.006663
NI2432   NI        0.734000    0.567333    0.400667     0.004307
NI2433   NI        0.734000    0.600667    0.367333     0.004307
NI2434   NI        0.767333    0.567333    0.367333     0.004307
NI2435   NI        0.767333    0.600667    0.400667     0.004307
NI2436   NI        0.800667    0.567333    0.400667     0.004307
NI2437   NI        0.800667    0.600667    0.367333     0.004307
NI2438   NI        0.834000    0.567333    0.367333     0.004307
NI2439   NI        0.834000    0.600667    0.400667     0.004307
NI2440   NI        0.867333    0.567333    0.400667     0.004307
NI2441   NI        0.034000    0.634000    0.367333     0.004307
NI2442   NI        0.067333    0.634000    0.400667     0.004307
NI2443   NI        0.067333    0.667333    0.367333     0.004307
NI2444   NI        0.100667    0.634000    0.367333     0.004307
NI2445   NI        0.100667    0.667333    0.400667     0.004307
NI2446   NI        0.134000    0.634000    0.400667     0.004307
NI2447   NI        0.134000    0.667333    0.367333     0.004307
NI2448   NI        0.167333    0.634000    0.367333     0.004307
NI2449   NI        0.167333    0.667333    0.400667     0.004307
CU2450   CU        0.200667    0.634000    0.400667     0.006663
NI2451   NI        0.200667    0.667333    0.367333     0.004307
CU2452   CU        0.234000    0.634000    0.367333     0.006663
CU2453   CU        0.234000    0.667333    0.400667     0.006663
CU2454   CU        0.267333    0.634000    0.400667     0.006663
CU2455   CU        0.267333    0.667333    0.367333     0.006663
CU2456   CU        0.300667    0.634000    0.367333     0.006663
CU2457   CU        0.300667    0.667333    0.400667     0.006663
CU2458   CU        0.334000    0.634000    0.400667     0.006663
CU2459   CU        0.334000    0.667333    0.367333     0.006663
CU2460   CU        0.367333    0.634000    0.367333     0.006663
CU2461   CU        0.367333    0.667333    0.400667     0.006663
CU2462   CU        0.400667    0.634000    0.400667     0.006663
CU2463   CU        0.400667    0.667333    0.367333     0.006663
CU2464   CU        0.434000    0.634000    0.367333     0.006663
CU2465   CU        0.434000    0.667333    0.400667     0.006663
CU2466   CU        0.467333    0.634000    0.400667     0.006663
CU2467   CU        0.467333    0.667333    0.367333     0.006663
CU2468   CU        0.500667    0.634000    0.367333     0.006663
CU2469   CU        0.500667    0.667333    0.400667     0.006663
CU2470   CU        0.534000    0.634000    0.400667     0.006663
CU2471   CU        0.534000    0.667333    0.367333     0.006663
CU2472   CU        0.567333    0.634000    0.367333     0.006663
CU2473   CU        0.567333    0.667333    0.400667     0.006663
CU2474   CU        0.600667    0.634000    0.400667     0.006663
CU2475   CU        0.600667    0.667333    0.367333     0.006663
CU2476   CU        0.634000    0.634000    0.367333     0.006663
CU2477   CU        0.634000    0.667333    0.400667     0.006663
CU2478   CU        0.667333    0.634000    0.400667     0.006663
NI2479   NI        0.667333    0.667333    0.367333     0.004307
NI2480   NI        0.700667    0.634000    0.367333     0.004307
NI2481   NI        0.700667    0.667333    0.400667     0.004307
NI2482   NI        0.734000    0.634000    0.400667     0.004307
NI2483   NI        0.734000    0.667333    0.367333     0.004307
NI2484   NI        0.767333    0.634000    0.367333     0.004307
NI2485   NI        0.767333    0.667333    0.400667     0.004307
NI2486   NI        0.800667    0.634000    0.400667     0.004307
NI2487   NI        0.800667    0.667333    0.367333     0.004307
NI2488   NI        0.834000    0.634000    0.367333     0.004307
NI2489   NI        0.067333    0.700667    0.400667     0.004307
NI2490   NI        0.100667    0.700667    0.367333     0.004307
NI2491   NI        0.100667    0.734000    0.400667     0.004307
NI2492   NI        0.134000    0.700667    0.400667     0.004307
NI2493   NI        0.134000    0.734000    0.367333     0.004307
NI2494   NI        0.167333    0.700667    0.367333     0.004307
NI2495   NI        0.167333    0.734000    0.400667     0.004307
NI2496   NI        0.200667    0.700667    0.400667     0.004307
NI2497   NI        0.200667    0.734000    0.367333     0.004307
NI2498   NI        0.234000    0.700667    0.367333     0.004307
NI2499   NI        0.234000    0.734000    0.400667     0.004307
CU2500   CU        0.267333    0.700667    0.400667     0.006663
NI2501   NI        0.267333    0.734000    0.367333     0.004307
CU2502   CU        0.300667    0.700667    0.367333     0.006663
NI2503   NI        0.300667    0.734000    0.400667     0.004307
CU2504   CU        0.334000    0.700667    0.400667     0.006663
NI2505   NI        0.334000    0.734000    0.367333     0.004307
CU2506   CU        0.367333    0.700667    0.367333     0.006663
CU2507   CU        0.367333    0.734000    0.400667     0.006663
CU2508   CU        0.400667    0.700667    0.400667     0.006663
CU2509   CU        0.400667    0.734000    0.367333     0.006663
CU2510   CU        0.434000    0.700667    0.367333     0.006663
CU2511   CU        0.434000    0.734000    0.400667     0.006663
CU2512   CU        0.467333    0.700667    0.400667     0.006663
CU2513   CU        0.467333    0.734000    0.367333     0.006663
CU2514   CU        0.500667    0.700667    0.367333     0.006663
CU2515   CU        0.500667    0.734000    0.400667     0.006663
CU2516   CU        0.534000    0.700667    0.400667     0.006663
NI2517   NI        0.534000    0.734000    0.367333     0.004307
CU2518   CU        0.567333    0.700667    0.367333     0.006663
NI2519   NI        0.567333    0.734000    0.400667     0.004307
CU2520   CU        0.600667    0.700667    0.400667     0.006663
NI2521   NI        0.600667    0.734000    0.367333     0.004307
NI2522   NI        0.634000    0.700667    0.367333     0.004307
NI2523   NI        0.634000    0.734000    0.400667     0.004307
NI2524   NI        0.667333    0.700667    0.400667     0.004307
NI2525   NI        0.667333    0.734000    0.367333     0.004307
NI2526   NI        0.700667    0.700667    0.367333     0.004307
NI2527   NI        0.700667    0.734000    0.400667     0.004307
NI2528   NI        0.734000    0.700667    0.400667     0.004307
NI2529   NI        0.734000    0.734000    0.367333     0.004307
NI2530   NI        0.767333    0.700667    0.367333     0.004307
NI2531   NI        0.767333    0.734000    0.400667     0.004307
NI2532   NI        0.800667    0.700667    0.400667     0.004307
NI2533   NI        0.134000    0.767333    0.400667     0.004307
NI2534   NI        0.167333    0.767333    0.367333     0.004307
NI2535   NI        0.167333    0.800667    0.400667     0.004307
NI2536   NI        0.200667    0.767333    0.400667     0.004307
NI2537   NI        0.200667    0.800667    0.367333     0.004307
NI2538   NI        0.234000    0.767333    0.367333     0.004307
NI2539   NI        0.234000    0.800667    0.400667     0.004307
NI2540   NI        0.267333    0.767333    0.400667     0.004307
NI2541   NI        0.267333    0.800667    0.367333     0.004307
NI2542   NI        0.300667    0.767333    0.367333     0.004307
NI2543   NI        0.300667    0.800667    0.400667     0.004307
NI2544   NI        0.334000    0.767333    0.400667     0.004307
NI2545   NI        0.334000    0.800667    0.367333     0.004307
NI2546   NI        0.367333    0.767333    0.367333     0.004307
NI2547   NI        0.367333    0.800667    0.400667     0.004307
NI2548   NI        0.400667    0.767333    0.400667     0.004307
NI2549   NI        0.400667    0.800667    0.367333     0.004307
NI2550   NI        0.434000    0.767333    0.367333     0.004307
NI2551   NI        0.434000    0.800667    0.400667     0.004307
NI2552   NI        0.467333    0.767333    0.400667     0.004307
NI2553   NI        0.467333    0.800667    0.367333     0.004307
NI2554   NI        0.500667    0.767333    0.367333     0.004307
NI2555   NI        0.500667    0.800667    0.400667     0.004307
NI2556   NI        0.534000    0.767333    0.400667     0.004307
NI2557   NI        0.534000    0.800667    0.367333     0.004307
NI2558   NI        0.567333    0.767333    0.367333     0.004307
NI2559   NI        0.567333    0.800667    0.400667     0.004307
NI2560   NI        0.600667    0.767333    0.400667     0.004307
NI2561   NI        0.600667    0.800667    0.367333     0.004307
NI2562   NI        0.634000    0.767333    0.367333     0.004307
NI2563   NI        0.634000    0.800667    0.400667     0.004307
NI2564   NI        0.667333    0.767333    0.400667     0.004307
NI2565   NI        0.667333    0.800667    0.367333     0.004307
NI2566   NI        0.700667    0.767333    0.367333     0.004307
NI2567   NI        0.700667    0.800667    0.400667     0.004307
NI2568   NI        0.734000    0.767333    0.400667     0.004307
NI2569   NI        0.234000    0.834000    0.367333     0.004307
NI2570   NI        0.267333    0.834000    0.400667     0.004307
NI2571   NI        0.300667    0.834000    0.367333     0.004307
NI2572   NI        0.300667    0.867333    0.400667     0.004307
NI2573   NI        0.334000    0.834000    0.400667     0.004307
NI2574   NI        0.334000    0.867333    0.367333     0.004307
NI2575   NI        0.367333    0.834000    0.367333     0.004307
NI2576   NI        0.367333    0.867333    0.400667     0.004307
NI2577   NI        0.400667    0.834000    0.400667     0.004307
NI2578   NI        0.400667    0.867333    0.367333     0.004307
NI2579   NI        0.434000    0.834000    0.367333     0.004307
NI2580   NI        0.434000    0.867333    0.400667     0.004307
NI2581   NI        0.467333    0.834000    0.400667     0.004307
NI2582   NI        0.467333    0.867333    0.367333     0.004307
NI2583   NI        0.500667    0.834000    0.367333     0.004307
NI2584   NI        0.500667    0.867333    0.400667     0.004307
NI2585   NI        0.534000    0.834000    0.400667     0.004307
NI2586   NI        0.534000    0.867333    0.367333     0.004307
NI2587   NI        0.567333    0.834000    0.367333     0.004307
NI2588   NI        0.567333    0.867333    0.400667     0.004307
NI2589   NI        0.600667    0.834000    0.400667     0.004307
NI2590   NI        0.634000    0.834000    0.367333     0.004307
NI2591   NI        0.300667    0.000667    0.467333     0.004307
NI2592   NI        0.334000    0.000667    0.434000     0.004307
NI2593   NI        0.367333    0.000667    0.467333     0.004307
NI2594   NI        0.400667    0.000667    0.434000     0.004307
NI2595   NI        0.434000    0.000667    0.467333     0.004307
NI2596   NI        0.467333    0.000667    0.434000     0.004307
NI2597   NI        0.500667    0.000667    0.467333     0.004307
NI2598   NI        0.534000    0.000667    0.434000     0.004307
NI2599   NI        0.567333    0.000667    0.467333     0.004307
NI2600   NI        0.167333    0.067333    0.467333     0.004307
NI2601   NI        0.200667    0.067333    0.434000     0.004307
NI2602   NI        0.234000    0.034000    0.434000     0.004307
NI2603   NI        0.234000    0.067333    0.467333     0.004307
NI2604   NI        0.267333    0.034000    0.467333     0.004307
NI2605   NI        0.267333    0.067333    0.434000     0.004307
NI2606   NI        0.300667    0.034000    0.434000     0.004307
NI2607   NI        0.300667    0.067333    0.467333     0.004307
NI2608   NI        0.334000    0.034000    0.467333     0.004307
NI2609   NI        0.334000    0.067333    0.434000     0.004307
NI2610   NI        0.367333    0.034000    0.434000     0.004307
NI2611   NI        0.367333    0.067333    0.467333     0.004307
NI2612   NI        0.400667    0.034000    0.467333     0.004307
NI2613   NI        0.400667    0.067333    0.434000     0.004307
NI2614   NI        0.434000    0.034000    0.434000     0.004307
NI2615   NI        0.434000    0.067333    0.467333     0.004307
NI2616   NI        0.467333    0.034000    0.467333     0.004307
NI2617   NI        0.467333    0.067333    0.434000     0.004307
NI2618   NI        0.500667    0.034000    0.434000     0.004307
NI2619   NI        0.500667    0.067333    0.467333     0.004307
NI2620   NI        0.534000    0.034000    0.467333     0.004307
NI2621   NI        0.534000    0.067333    0.434000     0.004307
NI2622   NI        0.567333    0.034000    0.434000     0.004307
NI2623   NI        0.567333    0.067333    0.467333     0.004307
NI2624   NI        0.600667    0.034000    0.467333     0.004307
NI2625   NI        0.600667    0.067333    0.434000     0.004307
NI2626   NI        0.634000    0.034000    0.434000     0.004307
NI2627   NI        0.634000    0.067333    0.467333     0.004307
NI2628   NI        0.667333    0.067333    0.434000     0.004307
NI2629   NI        0.700667    0.067333    0.467333     0.004307
NI2630   NI        0.100667    0.134000    0.467333     0.004307
NI2631   NI        0.134000    0.100667    0.467333     0.004307
NI2632   NI        0.134000    0.134000    0.434000     0.004307
NI2633   NI        0.167333    0.100667    0.434000     0.004307
NI2634   NI        0.167333    0.134000    0.467333     0.004307
NI2635   NI        0.200667    0.100667    0.467333     0.004307
NI2636   NI        0.200667    0.134000    0.434000     0.004307
NI2637   NI        0.234000    0.100667    0.434000     0.004307
NI2638   NI        0.234000    0.134000    0.467333     0.004307
NI2639   NI        0.267333    0.100667    0.467333     0.004307
NI2640   NI        0.267333    0.134000    0.434000     0.004307
NI2641   NI        0.300667    0.100667    0.434000     0.004307
NI2642   NI        0.300667    0.134000    0.467333     0.004307
NI2643   NI        0.334000    0.100667    0.467333     0.004307
CU2644   CU        0.334000    0.134000    0.434000     0.006663
NI2645   NI        0.367333    0.100667    0.434000     0.004307
CU2646   CU        0.367333    0.134000    0.467333     0.006663
NI2647   NI        0.400667    0.100667    0.467333     0.004307
CU2648   CU        0.400667    0.134000    0.434000     0.006663
NI2649   NI        0.434000    0.100667    0.434000     0.004307
CU2650   CU        0.434000    0.134000    0.467333     0.006663
NI2651   NI        0.467333    0.100667    0.467333     0.004307
CU2652   CU        0.467333    0.134000    0.434000     0.006663
NI2653   NI        0.500667    0.100667    0.434000     0.004307
CU2654   CU        0.500667    0.134000    0.467333     0.006663
NI2655   NI        0.534000    0.100667    0.467333     0.004307
CU2656   CU        0.534000    0.134000    0.434000     0.006663
NI2657   NI        0.567333    0.100667    0.434000     0.004307
NI2658   NI        0.567333    0.134000    0.467333     0.004307
NI2659   NI        0.600667    0.100667    0.467333     0.004307
NI2660   NI        0.600667    0.134000    0.434000     0.004307
NI2661   NI        0.634000    0.100667    0.434000     0.004307
NI2662   NI        0.634000    0.134000    0.467333     0.004307
NI2663   NI        0.667333    0.100667    0.467333     0.004307
NI2664   NI        0.667333    0.134000    0.434000     0.004307
NI2665   NI        0.700667    0.100667    0.434000     0.004307
NI2666   NI        0.700667    0.134000    0.467333     0.004307
NI2667   NI        0.734000    0.100667    0.467333     0.004307
NI2668   NI        0.734000    0.134000    0.434000     0.004307
NI2669   NI        0.767333    0.134000    0.467333     0.004307
NI2670   NI        0.067333    0.167333    0.467333     0.004307
NI2671   NI        0.067333    0.200667    0.434000     0.004307
NI2672   NI        0.100667    0.167333    0.434000     0.004307
NI2673   NI        0.100667    0.200667    0.467333     0.004307
NI2674   NI        0.134000    0.167333    0.467333     0.004307
NI2675   NI        0.134000    0.200667    0.434000     0.004307
NI2676   NI        0.167333    0.167333    0.434000     0.004307
NI2677   NI        0.167333    0.200667    0.467333     0.004307
NI2678   NI        0.200667    0.167333    0.467333     0.004307
NI2679   NI        0.200667    0.200667    0.434000     0.004307
NI2680   NI        0.234000    0.167333    0.434000     0.004307
CU2681   CU        0.234000    0.200667    0.467333     0.006663
CU2682   CU        0.267333    0.167333    0.467333     0.006663
CU2683   CU        0.267333    0.200667    0.434000     0.006663
CU2684   CU        0.300667    0.167333    0.434000     0.006663
CU2685   CU        0.300667    0.200667    0.467333     0.006663
CU2686   CU        0.334000    0.167333    0.467333     0.006663
CU2687   CU        0.334000    0.200667    0.434000     0.006663
CU2688   CU        0.367333    0.167333    0.434000     0.006663
CU2689   CU        0.367333    0.200667    0.467333     0.006663
CU2690   CU        0.400667    0.167333    0.467333     0.006663
CU2691   CU        0.400667    0.200667    0.434000     0.006663
CU2692   CU        0.434000    0.167333    0.434000     0.006663
CU2693   CU        0.434000    0.200667    0.467333     0.006663
CU2694   CU        0.467333    0.167333    0.467333     0.006663
CU2695   CU        0.467333    0.200667    0.434000     0.006663
CU2696   CU        0.500667    0.167333    0.434000     0.006663
CU2697   CU        0.500667    0.200667    0.467333     0.006663
CU2698   CU        0.534000    0.167333    0.467333     0.006663
CU2699   CU        0.534000    0.200667    0.434000     0.006663
CU2700   CU        0.567333    0.167333    0.434000     0.006663
CU2701   CU        0.567333    0.200667    0.467333     0.006663
CU2702   CU        0.600667    0.167333    0.467333     0.006663
CU2703   CU        0.600667    0.200667    0.434000     0.006663
NI2704   NI        0.634000    0.167333    0.434000     0.004307
CU2705   CU        0.634000    0.200667    0.467333     0.006663
NI2706   NI        0.667333    0.167333    0.467333     0.004307
NI2707   NI        0.667333    0.200667    0.434000     0.004307
NI2708   NI        0.700667    0.167333    0.434000     0.004307
NI2709   NI        0.700667    0.200667    0.467333     0.004307
NI2710   NI        0.734000    0.167333    0.467333     0.004307
NI2711   NI        0.734000    0.200667    0.434000     0.004307
NI2712   NI        0.767333    0.167333    0.434000     0.004307
NI2713   NI        0.767333    0.200667    0.467333     0.004307
NI2714   NI        0.800667    0.167333    0.467333     0.004307
NI2715   NI        0.800667    0.200667    0.434000     0.004307
NI2716   NI        0.034000    0.234000    0.434000     0.004307
NI2717   NI        0.034000    0.267333    0.467333     0.004307
NI2718   NI        0.067333    0.234000    0.467333     0.004307
NI2719   NI        0.067333    0.267333    0.434000     0.004307
NI2720   NI        0.100667    0.234000    0.434000     0.004307
NI2721   NI        0.100667    0.267333    0.467333     0.004307
NI2722   NI        0.134000    0.234000    0.467333     0.004307
NI2723   NI        0.134000    0.267333    0.434000     0.004307
NI2724   NI        0.167333    0.234000    0.434000     0.004307
CU2725   CU        0.167333    0.267333    0.467333     0.006663
CU2726   CU        0.200667    0.234000    0.467333     0.006663
CU2727   CU        0.200667    0.267333    0.434000     0.006663
CU2728   CU        0.234000    0.234000    0.434000     0.006663
CU2729   CU        0.234000    0.267333    0.467333     0.006663
CU2730   CU        0.267333    0.234000    0.467333     0.006663
CU2731   CU        0.267333    0.267333    0.434000     0.006663
CU2732   CU        0.300667    0.234000    0.434000     0.006663
CU2733   CU        0.300667    0.267333    0.467333     0.006663
CU2734   CU        0.334000    0.234000    0.467333     0.006663
CU2735   CU        0.334000    0.267333    0.434000     0.006663
CU2736   CU        0.367333    0.234000    0.434000     0.006663
CU2737   CU        0.367333    0.267333    0.467333     0.006663
CU2738   CU        0.400667    0.234000    0.467333     0.006663
CU2739   CU        0.400667    0.267333    0.434000     0.006663
CU2740   CU        0.434000    0.234000    0.434000     0.006663
CU2741   CU        0.434000    0.267333    0.467333     0.006663
CU2742   CU        0.467333    0.234000    0.467333     0.006663
CU2743   CU        0.467333    0.267333    0.434000     0.006663
CU2744   CU        0.500667    0.234000    0.434000     0.006663
CU2745   CU        0.500667    0.267333    0.467333     0.006663
CU2746   CU        0.534000    0.234000    0.467333     0.006663
CU2747   CU        0.534000    0.267333    0.434000     0.006663
CU2748   CU        0.567333    0.234000    0.434000     0.006663
CU2749   CU        0.567333    0.267333    0.467333     0.006663
CU2750   CU        0.600667    0.234000    0.467333     0.006663
CU2751   CU        0.600667    0.267333    0.434000     0.006663
CU2752   CU        0.634000    0.234000    0.434000     0.006663
CU2753   CU        0.634000    0.267333    0.467333     0.006663
CU2754   CU        0.667333    0.234000    0.467333     0.006663
CU2755   CU        0.667333    0.267333    0.434000     0.006663
NI2756   NI        0.700667    0.234000    0.434000     0.004307
CU2757   CU        0.700667    0.267333    0.467333     0.006663
NI2758   NI        0.734000    0.234000    0.467333     0.004307
NI2759   NI        0.734000    0.267333    0.434000     0.004307
NI2760   NI        0.767333    0.234000    0.434000     0.004307
NI2761   NI        0.767333    0.267333    0.467333     0.004307
NI2762   NI        0.800667    0.234000    0.467333     0.004307
NI2763   NI        0.800667    0.267333    0.434000     0.004307
NI2764   NI        0.834000    0.234000    0.434000     0.004307
NI2765   NI        0.834000    0.267333    0.467333     0.004307
NI2766   NI        0.000667    0.300667    0.467333     0.004307
NI2767   NI        0.000667    0.334000    0.434000     0.004307
NI2768   NI        0.034000    0.300667    0.434000     0.004307
NI2769   NI        0.034000    0.334000    0.467333     0.004307
NI2770   NI        0.067333    0.300667    0.467333     0.004307
NI2771   NI        0.067333    0.334000    0.434000     0.004307
NI2772   NI        0.100667    0.300667    0.434000     0.004307
NI2773   NI        0.100667    0.334000    0.467333     0.004307
NI2774   NI        0.134000    0.300667    0.467333     0.004307
CU2775   CU        0.134000    0.334000    0.434000     0.006663
CU2776   CU        0.167333    0.300667    0.434000     0.006663
CU2777   CU        0.167333    0.334000    0.467333     0.006663
CU2778   CU        0.200667    0.300667    0.467333     0.006663
CU2779   CU        0.200667    0.334000    0.434000     0.006663
CU2780   CU        0.234000    0.300667    0.434000     0.006663
CU2781   CU        0.234000    0.334000    0.467333     0.006663
CU2782   CU        0.267333    0.300667    0.467333     0.006663
CU2783   CU        0.267333    0.334000    0.434000     0.006663
CU2784   CU        0.300667    0.300667    0.434000     0.006663
CU2785   CU        0.300667    0.334000    0.467333     0.006663
CU2786   CU        0.334000    0.300667    0.467333     0.006663
CU2787   CU        0.334000    0.334000    0.434000     0.006663
CU2788   CU        0.367333    0.300667    0.434000     0.006663
CU2789   CU        0.367333    0.334000    0.467333     0.006663
CU2790   CU        0.400667    0.300667    0.467333     0.006663
CU2791   CU        0.400667    0.334000    0.434000     0.006663
CU2792   CU        0.434000    0.300667    0.434000     0.006663
CU2793   CU        0.434000    0.334000    0.467333     0.006663
CU2794   CU        0.467333    0.300667    0.467333     0.006663
CU2795   CU        0.467333    0.334000    0.434000     0.006663
CU2796   CU        0.500667    0.300667    0.434000     0.006663
CU2797   CU        0.500667    0.334000    0.467333     0.006663
CU2798   CU        0.534000    0.300667    0.467333     0.006663
CU2799   CU        0.534000    0.334000    0.434000     0.006663
CU2800   CU        0.567333    0.300667    0.434000     0.006663
CU2801   CU        0.567333    0.334000    0.467333     0.006663
CU2802   CU        0.600667    0.300667    0.467333     0.006663
CU2803   CU        0.600667    0.334000    0.434000     0.006663
CU2804   CU        0.634000    0.300667    0.434000     0.006663
CU2805   CU        0.634000    0.334000    0.467333     0.006663
CU2806   CU        0.667333    0.300667    0.467333     0.006663
CU2807   CU        0.667333    0.334000    0.434000     0.006663
CU2808   CU        0.700667    0.300667    0.434000     0.006663
CU2809   CU        0.700667    0.334000    0.467333     0.006663
NI2810   NI        0.734000    0.300667    0.467333     0.004307
CU2811   CU        0.734000    0.334000    0.434000     0.006663
NI2812   NI        0.767333    0.300667    0.434000     0.004307
NI2813   NI        0.767333    0.334000    0.467333     0.004307
NI2814   NI        0.800667    0.300667    0.467333     0.004307
NI2815   NI        0.800667    0.334000    0.434000     0.004307
NI2816   NI        0.834000    0.300667    0.434000     0.004307
NI2817   NI        0.834000    0.334000    0.467333     0.004307
NI2818   NI        0.867333    0.300667    0.467333     0.004307
NI2819   NI        0.867333    0.334000    0.434000     0.004307
NI2820   NI        0.000667    0.367333    0.467333     0.004307
NI2821   NI        0.000667    0.400667    0.434000     0.004307
NI2822   NI        0.034000    0.367333    0.434000     0.004307
NI2823   NI        0.034000    0.400667    0.467333     0.004307
NI2824   NI        0.067333    0.367333    0.467333     0.004307
NI2825   NI        0.067333    0.400667    0.434000     0.004307
NI2826   NI        0.100667    0.367333    0.434000     0.004307
NI2827   NI        0.100667    0.400667    0.467333     0.004307
CU2828   CU        0.134000    0.367333    0.467333     0.006663
CU2829   CU        0.134000    0.400667    0.434000     0.006663
CU2830   CU        0.167333    0.367333    0.434000     0.006663
CU2831   CU        0.167333    0.400667    0.467333     0.006663
CU2832   CU        0.200667    0.367333    0.467333     0.006663
CU2833   CU        0.200667    0.400667    0.434000     0.006663
CU2834   CU        0.234000    0.367333    0.434000     0.006663
CU2835   CU        0.234000    0.400667    0.467333     0.006663
CU2836   CU        0.267333    0.367333    0.467333     0.006663
CU2837   CU        0.267333    0.400667    0.434000     0.006663
CU2838   CU        0.300667    0.367333    0.434000     0.006663
CU2839   CU        0.300667    0.400667    0.467333     0.006663
CU2840   CU        0.334000    0.367333    0.467333     0.006663
CU2841   CU        0.334000    0.400667    0.434000     0.006663
CU2842   CU        0.367333    0.367333    0.434000     0.006663
CU2843   CU        0.367333    0.400667    0.467333     0.006663
CU2844   CU        0.400667    0.367333    0.467333     0.006663
CU2845   CU        0.400667    0.400667    0.434000     0.006663
CU2846   CU        0.434000    0.367333    0.434000     0.006663
CU2847   CU        0.434000    0.400667    0.467333     0.006663
CU2848   CU        0.467333    0.367333    0.467333     0.006663
CU2849   CU        0.467333    0.400667    0.434000     0.006663
CU2850   CU        0.500667    0.367333    0.434000     0.006663
CU2851   CU        0.500667    0.400667    0.467333     0.006663
CU2852   CU        0.534000    0.367333    0.467333     0.006663
CU2853   CU        0.534000    0.400667    0.434000     0.006663
CU2854   CU        0.567333    0.367333    0.434000     0.006663
CU2855   CU        0.567333    0.400667    0.467333     0.006663
CU2856   CU        0.600667    0.367333    0.467333     0.006663
CU2857   CU        0.600667    0.400667    0.434000     0.006663
CU2858   CU        0.634000    0.367333    0.434000     0.006663
CU2859   CU        0.634000    0.400667    0.467333     0.006663
CU2860   CU        0.667333    0.367333    0.467333     0.006663
CU2861   CU        0.667333    0.400667    0.434000     0.006663
CU2862   CU        0.700667    0.367333    0.434000     0.006663
CU2863   CU        0.700667    0.400667    0.467333     0.006663
CU2864   CU        0.734000    0.367333    0.467333     0.006663
CU2865   CU        0.734000    0.400667    0.434000     0.006663
NI2866   NI        0.767333    0.367333    0.434000     0.004307
NI2867   NI        0.767333    0.400667    0.467333     0.004307
NI2868   NI        0.800667    0.367333    0.467333     0.004307
NI2869   NI        0.800667    0.400667    0.434000     0.004307
NI2870   NI        0.834000    0.367333    0.434000     0.004307
NI2871   NI        0.834000    0.400667    0.467333     0.004307
NI2872   NI        0.867333    0.367333    0.467333     0.004307
NI2873   NI        0.867333    0.400667    0.434000     0.004307
NI2874   NI        0.000667    0.434000    0.467333     0.004307
NI2875   NI        0.000667    0.467333    0.434000     0.004307
NI2876   NI        0.034000    0.434000    0.434000     0.004307
NI2877   NI        0.034000    0.467333    0.467333     0.004307
NI2878   NI        0.067333    0.434000    0.467333     0.004307
NI2879   NI        0.067333    0.467333    0.434000     0.004307
NI2880   NI        0.100667    0.434000    0.434000     0.004307
NI2881   NI        0.100667    0.467333    0.467333     0.004307
CU2882   CU        0.134000    0.434000    0.467333     0.006663
CU2883   CU        0.134000    0.467333    0.434000     0.006663
CU2884   CU        0.167333    0.434000    0.434000     0.006663
CU2885   CU        0.167333    0.467333    0.467333     0.006663
CU2886   CU        0.200667    0.434000    0.467333     0.006663
CU2887   CU        0.200667    0.467333    0.434000     0.006663
CU2888   CU        0.234000    0.434000    0.434000     0.006663
CU2889   CU        0.234000    0.467333    0.467333     0.006663
CU2890   CU        0.267333    0.434000    0.467333     0.006663
CU2891   CU        0.267333    0.467333    0.434000     0.006663
CU2892   CU        0.300667    0.434000    0.434000     0.006663
CU2893   CU        0.300667    0.467333    0.467333     0.006663
CU2894   CU        0.334000    0.434000    0.467333     0.006663
CU2895   CU        0.334000    0.467333    0.434000     0.006663
CU2896   CU        0.367333    0.434000    0.434000     0.006663
CU2897   CU        0.367333    0.467333    0.467333     0.006663
CU2898   CU        0.400667    0.434000    0.467333     0.006663
CU2899   CU        0.400667    0.467333    0.434000     0.006663
CU2900   CU        0.434000    0.434000    0.434000     0.006663
CU2901   CU        0.434000    0.467333    0.467333     0.006663
CU2902   CU        0.467333    0.434000    0.467333     0.006663
CU2903   CU        0.467333    0.467333    0.434000     0.006663
CU2904   CU        0.500667    0.434000    0.434000     0.006663
CU2905   CU        0.500667    0.467333    0.467333     0.006663
CU2906   CU        0.534000    0.434000    0.467333     0.006663
CU2907   CU        0.534000    0.467333    0.434000     0.006663
CU2908   CU        0.567333    0.434000    0.434000     0.006663
CU2909   CU        0.567333    0.467333    0.467333     0.006663
CU2910   CU        0.600667    0.434000    0.467333     0.006663
CU2911   CU        0.600667    0.467333    0.434000     0.006663
CU2912   CU        0.634000    0.434000    0.434000     0.006663
CU2913   CU        0.634000    0.467333    0.467333     0.006663
CU2914   CU        0.667333    0.434000    0.467333     0.006663
CU2915   CU        0.667333    0.467333    0.434000     0.006663
CU2916   CU        0.700667    0.434000    0.434000     0.006663
CU2917   CU        0.700667    0.467333    0.467333     0.006663
CU2918   CU        0.734000    0.434000    0.467333     0.006663
CU2919   CU        0.734000    0.467333    0.434000     0.006663
NI2920   NI        0.767333    0.434000    0.434000     0.004307
NI2921   NI        0.767333    0.467333    0.467333     0.004307
NI2922   NI        0.800667    0.434000    0.467333     0.004307
NI2923   NI        0.800667    0.467333    0.434000     0.004307
NI2924   NI        0.834000    0.434000    0.434000     0.004307
NI2925   NI        0.834000    0.467333    0.467333     0.004307
NI2926   NI        0.867333    0.434000    0.467333     0.004307
NI2927   NI        0.867333    0.467333    0.434000     0.004307
NI2928   NI        0.000667    0.500667    0.467333     0.004307
NI2929   NI        0.000667    0.534000    0.434000     0.004307
NI2930   NI        0.034000    0.500667    0.434000     0.004307
NI2931   NI        0.034000    0.534000    0.467333     0.004307
NI2932   NI        0.067333    0.500667    0.467333     0.004307
NI2933   NI        0.067333    0.534000    0.434000     0.004307
NI2934   NI        0.100667    0.500667    0.434000     0.004307
NI2935   NI        0.100667    0.534000    0.467333     0.004307
CU2936   CU        0.134000    0.500667    0.467333     0.006663
CU2937   CU        0.134000    0.534000    0.434000     0.006663
CU2938   CU        0.167333    0.500667    0.434000     0.006663
CU2939   CU        0.167333    0.534000    0.467333     0.006663
CU2940   CU        0.200667    0.500667    0.467333     0.006663
CU2941   CU        0.200667    0.534000    0.434000     0.006663
CU2942   CU        0.234000    0.500667    0.434000     0.006663
CU2943   CU        0.234000    0.534000    0.467333     0.006663
CU2944   CU        0.267333    0.500667    0.467333     0.006663
CU2945   CU        0.267333    0.534000    0.434000     0.006663
CU2946   CU        0.300667    0.500667    0.434000     0.006663
CU2947   CU        0.300667    0.534000    0.467333     0.006663
CU2948   CU        0.334000    0.500667    0.467333     0.006663
CU2949   CU        0.334000    0.534000    0.434000     0.006663
CU2950   CU        0.367333    0.500667    0.434000     0.006663
CU2951   CU        0.367333    0.534000    0.467333     0.006663
CU2952   CU        0.400667    0.500667    0.467333     0.006663
CU2953   CU        0.400667    0.534000    0.434000     0.006663
CU2954   CU        0.434000    0.500667    0.434000     0.006663
CU2955   CU        0.434000    0.534000    0.467333     0.006663
CU2956   CU        0.467333    0.500667    0.467333     0.006663
CU2957   CU        0.467333    0.534000    0.434000     0.006663
CU2958   CU        0.500667    0.500667    0.434000     0.006663
CU2959   CU        0.500667    0.534000    0.467333     0.006663
CU2960   CU        0.534000    0.500667    0.467333     0.006663
CU2961   CU        0.534000    0.534000    0.434000     0.006663
CU2962   CU        0.567333    0.500667    0.434000     0.006663
CU2963   CU        0.567333    0.534000    0.467333     0.006663
CU2964   CU        0.600667    0.500667    0.467333     0.006663
CU2965   CU        0.600667    0.534000    0.434000     0.006663
CU2966   CU        0.634000    0.500667    0.434000     0.006663
CU2967   CU        0.634000    0.534000    0.467333     0.006663
CU2968   CU        0.667333    0.500667    0.467333     0.006663
CU2969   CU        0.667333    0.534000    0.434000     0.006663
CU2970   CU        0.700667    0.500667    0.434000     0.006663
CU2971   CU        0.700667    0.534000    0.467333     0.006663
CU2972   CU        0.734000    0.500667    0.467333     0.006663
CU2973   CU        0.734000    0.534000    0.434000     0.006663
NI2974   NI        0.767333    0.500667    0.434000     0.004307
NI2975   NI        0.767333    0.534000    0.467333     0.004307
NI2976   NI        0.800667    0.500667    0.467333     0.004307
NI2977   NI        0.800667    0.534000    0.434000     0.004307
NI2978   NI        0.834000    0.500667    0.434000     0.004307
NI2979   NI        0.834000    0.534000    0.467333     0.004307
NI2980   NI        0.867333    0.500667    0.467333     0.004307
NI2981   NI        0.867333    0.534000    0.434000     0.004307
NI2982   NI        0.000667    0.567333    0.467333     0.004307
NI2983   NI        0.034000    0.567333    0.434000     0.004307
NI2984   NI        0.034000    0.600667    0.467333     0.004307
NI2985   NI        0.067333    0.567333    0.467333     0.004307
NI2986   NI        0.067333    0.600667    0.434000     0.004307
NI2987   NI        0.100667    0.567333    0.434000     0.004307
NI2988   NI        0.100667    0.600667    0.467333     0.004307
NI2989   NI        0.134000    0.567333    0.467333     0.004307
NI2990   NI        0.134000    0.600667    0.434000     0.004307
CU2991   CU        0.167333    0.567333    0.434000     0.006663
CU2992   CU        0.167333    0.600667    0.467333     0.006663
CU2993   CU        0.200667    0.567333    0.467333     0.006663
CU2994   CU        0.200667    0.600667    0.434000     0.006663
CU2995   CU        0.234000    0.567333    0.434000     0.006663
CU2996   CU        0.234000    0.600667    0.467333     0.006663
CU2997   CU        0.267333    0.567333    0.467333     0.006663
CU2998   CU        0.267333    0.600667    0.434000     0.006663
CU2999   CU        0.300667    0.567333    0.434000     0.006663
CU3000   CU        0.300667    0.600667    0.467333     0.006663
CU3001   CU        0.334000    0.567333    0.467333     0.006663
CU3002   CU        0.334000    0.600667    0.434000     0.006663
CU3003   CU        0.367333    0.567333    0.434000     0.006663
CU3004   CU        0.367333    0.600667    0.467333     0.006663
CU3005   CU        0.400667    0.567333    0.467333     0.006663
CU3006   CU        0.400667    0.600667    0.434000     0.006663
CU3007   CU        0.434000    0.567333    0.434000     0.006663
CU3008   CU        0.434000    0.600667    0.467333     0.006663
CU3009   CU        0.467333    0.567333    0.467333     0.006663
CU3010   CU        0.467333    0.600667    0.434000     0.006663
CU3011   CU        0.500667    0.567333    0.434000     0.006663
CU3012   CU        0.500667    0.600667    0.467333     0.006663
CU3013   CU        0.534000    0.567333    0.467333     0.006663
CU3014   CU        0.534000    0.600667    0.434000     0.006663
CU3015   CU        0.567333    0.567333    0.434000     0.006663
CU3016   CU        0.567333    0.600667    0.467333     0.006663
CU3017   CU        0.600667    0.567333    0.467333     0.006663
CU3018   CU        0.600667    0.600667    0.434000     0.006663
CU3019   CU        0.634000    0.567333    0.434000     0.006663
CU3020   CU        0.634000    0.600667    0.467333     0.006663
CU3021   CU        0.667333    0.567333    0.467333     0.006663
CU3022   CU        0.667333    0.600667    0.434000     0.006663
CU3023   CU        0.700667    0.567333    0.434000     0.006663
CU3024   CU        0.700667    0.600667    0.467333     0.006663
NI3025   NI        0.734000    0.567333    0.467333     0.004307
NI3026   NI        0.734000    0.600667    0.434000     0.004307
NI3027   NI        0.767333    0.567333    0.434000     0.004307
NI3028   NI        0.767333    0.600667    0.467333     0.004307
NI3029   NI        0.800667    0.567333    0.467333     0.004307
NI3030   NI        0.800667    0.600667    0.434000     0.004307
NI3031   NI        0.834000    0.567333    0.434000     0.004307
NI3032   NI        0.834000    0.600667    0.467333     0.004307
NI3033   NI        0.867333    0.567333    0.467333     0.004307
NI3034   NI        0.034000    0.634000    0.434000     0.004307
NI3035   NI        0.067333    0.634000    0.467333     0.004307
NI3036   NI        0.067333    0.667333    0.434000     0.004307
NI3037   NI        0.100667    0.634000    0.434000     0.004307
NI3038   NI        0.100667    0.667333    0.467333     0.004307
NI3039   NI        0.134000    0.634000    0.467333     0.004307
NI3040   NI        0.134000    0.667333    0.434000     0.004307
NI3041   NI        0.167333    0.634000    0.434000     0.004307
NI3042   NI        0.167333    0.667333    0.467333     0.004307
CU3043   CU        0.200667    0.634000    0.467333     0.006663
NI3044   NI        0.200667    0.667333    0.434000     0.004307
CU3045   CU        0.234000    0.634000    0.434000     0.006663
CU3046   CU        0.234000    0.667333    0.467333     0.006663
CU3047   CU        0.267333    0.634000    0.467333     0.006663
CU3048   CU        0.267333    0.667333    0.434000     0.006663
CU3049   CU        0.300667    0.634000    0.434000     0.006663
CU3050   CU        0.300667    0.667333    0.467333     0.006663
CU3051   CU        0.334000    0.634000    0.467333     0.006663
CU3052   CU        0.334000    0.667333    0.434000     0.006663
CU3053   CU        0.367333    0.634000    0.434000     0.006663
CU3054   CU        0.367333    0.667333    0.467333     0.006663
CU3055   CU        0.400667    0.634000    0.467333     0.006663
CU3056   CU        0.400667    0.667333    0.434000     0.006663
CU3057   CU        0.434000    0.634000    0.434000     0.006663
CU3058   CU        0.434000    0.667333    0.467333     0.006663
CU3059   CU        0.467333    0.634000    0.467333     0.006663
CU3060   CU        0.467333    0.667333    0.434000     0.006663
CU3061   CU        0.500667    0.634000    0.434000     0.006663
CU3062   CU        0.500667    0.667333    0.467333     0.006663
CU3063   CU        0.534000    0.634000    0.467333     0.006663
CU3064   CU        0.534000    0.667333    0.434000     0.006663
CU3065   CU        0.567333    0.634000    0.434000     0.006663
CU3066   CU        0.567333    0.667333    0.467333     0.006663
CU3067   CU        0.600667    0.634000    0.467333     0.006663
CU3068   CU        0.600667    0.667333    0.434000     0.006663
CU3069   CU        0.634000    0.634000    0.434000     0.006663
CU3070   CU        0.634000    0.667333    0.467333     0.006663
CU3071   CU        0.667333    0.634000    0.467333     0.006663
NI3072   NI        0.667333    0.667333    0.434000     0.004307
NI3073   NI        0.700667    0.634000    0.434000     0.004307
NI3074   NI        0.700667    0.667333    0.467333     0.004307
NI3075   NI        0.734000    0.634000    0.467333     0.004307
NI3076   NI        0.734000    0.667333    0.434000     0.004307
NI3077   NI        0.767333    0.634000    0.434000     0.004307
NI3078   NI        0.767333    0.667333    0.467333     0.004307
NI3079   NI        0.800667    0.634000    0.467333     0.004307
NI3080   NI        0.800667    0.667333    0.434000     0.004307
NI3081   NI        0.834000    0.634000    0.434000     0.004307
NI3082   NI        0.067333    0.700667    0.467333     0.004307
NI3083   NI        0.100667    0.700667    0.434000     0.004307
NI3084   NI        0.100667    0.734000    0.467333     0.004307
NI3085   NI        0.134000    0.700667    0.467333     0.004307
NI3086   NI        0.134000    0.734000    0.434000     0.004307
NI3087   NI        0.167333    0.700667    0.434000     0.004307
NI3088   NI        0.167333    0.734000    0.467333     0.004307
NI3089   NI        0.200667    0.700667    0.467333     0.004307
NI3090   NI        0.200667    0.734000    0.434000     0.004307
NI3091   NI        0.234000    0.700667    0.434000     0.004307
NI3092   NI        0.234000    0.734000    0.467333     0.004307
CU3093   CU        0.267333    0.700667    0.467333     0.006663
NI3094   NI        0.267333    0.734000    0.434000     0.004307
CU3095   CU        0.300667    0.700667    0.434000     0.006663
NI3096   NI        0.300667    0.734000    0.467333     0.004307
CU3097   CU        0.334000    0.700667    0.467333     0.006663
CU3098   CU        0.334000    0.734000    0.434000     0.006663
CU3099   CU        0.367333    0.700667    0.434000     0.006663
CU3100   CU        0.367333    0.734000    0.467333     0.006663
CU3101   CU        0.400667    0.700667    0.467333     0.006663
CU3102   CU        0.400667    0.734000    0.434000     0.006663
CU3103   CU        0.434000    0.700667    0.434000     0.006663
CU3104   CU        0.434000    0.734000    0.467333     0.006663
CU3105   CU        0.467333    0.700667    0.467333     0.006663
CU3106   CU        0.467333    0.734000    0.434000     0.006663
CU3107   CU        0.500667    0.700667    0.434000     0.006663
CU3108   CU        0.500667    0.734000    0.467333     0.006663
CU3109   CU        0.534000    0.700667    0.467333     0.006663
CU3110   CU        0.534000    0.734000    0.434000     0.006663
CU3111   CU        0.567333    0.700667    0.434000     0.006663
NI3112   NI        0.567333    0.734000    0.467333     0.004307
CU3113   CU        0.600667    0.700667    0.467333     0.006663
NI3114   NI        0.600667    0.734000    0.434000     0.004307
NI3115   NI        0.634000    0.700667    0.434000     0.004307
NI3116   NI        0.634000    0.734000    0.467333     0.004307
NI3117   NI        0.667333    0.700667    0.467333     0.004307
NI3118   NI        0.667333    0.734000    0.434000     0.004307
NI3119   NI        0.700667    0.700667    0.434000     0.004307
NI3120   NI        0.700667    0.734000    0.467333     0.004307
NI3121   NI        0.734000    0.700667    0.467333     0.004307
NI3122   NI        0.734000    0.734000    0.434000     0.004307
NI3123   NI        0.767333    0.700667    0.434000     0.004307
NI3124   NI        0.767333    0.734000    0.467333     0.004307
NI3125   NI        0.800667    0.700667    0.467333     0.004307
NI3126   NI        0.134000    0.767333    0.467333     0.004307
NI3127   NI        0.167333    0.767333    0.434000     0.004307
NI3128   NI        0.167333    0.800667    0.467333     0.004307
NI3129   NI        0.200667    0.767333    0.467333     0.004307
NI3130   NI        0.200667    0.800667    0.434000     0.004307
NI3131   NI        0.234000    0.767333    0.434000     0.004307
NI3132   NI        0.234000    0.800667    0.467333     0.004307
NI3133   NI        0.267333    0.767333    0.467333     0.004307
NI3134   NI        0.267333    0.800667    0.434000     0.004307
NI3135   NI        0.300667    0.767333    0.434000     0.004307
NI3136   NI        0.300667    0.800667    0.467333     0.004307
NI3137   NI        0.334000    0.767333    0.467333     0.004307
NI3138   NI        0.334000    0.800667    0.434000     0.004307
NI3139   NI        0.367333    0.767333    0.434000     0.004307
NI3140   NI        0.367333    0.800667    0.467333     0.004307
NI3141   NI        0.400667    0.767333    0.467333     0.004307
NI3142   NI        0.400667    0.800667    0.434000     0.004307
NI3143   NI        0.434000    0.767333    0.434000     0.004307
NI3144   NI        0.434000    0.800667    0.467333     0.004307
NI3145   NI        0.467333    0.767333    0.467333     0.004307
NI3146   NI        0.467333    0.800667    0.434000     0.004307
NI3147   NI        0.500667    0.767333    0.434000     0.004307
NI3148   NI        0.500667    0.800667    0.467333     0.004307
NI3149   NI        0.534000    0.767333    0.467333     0.004307
NI3150   NI        0.534000    0.800667    0.434000     0.004307
NI3151   NI        0.567333    0.767333    0.434000     0.004307
NI3152   NI        0.567333    0.800667    0.467333     0.004307
NI3153   NI        0.600667    0.767333    0.467333     0.004307
NI3154   NI        0.600667    0.800667    0.434000     0.004307
NI3155   NI        0.634000    0.767333    0.434000     0.004307
NI3156   NI        0.634000    0.800667    0.467333     0.004307
NI3157   NI        0.667333    0.767333    0.467333     0.004307
NI3158   NI        0.667333    0.800667    0.434000     0.004307
NI3159   NI        0.700667    0.767333    0.434000     0.004307
NI3160   NI        0.700667    0.800667    0.467333     0.004307
NI3161   NI        0.734000    0.767333    0.467333     0.004307
NI3162   NI        0.234000    0.834000    0.434000     0.004307
NI3163   NI        0.267333    0.834000    0.467333     0.004307
NI3164   NI        0.300667    0.834000    0.434000     0.004307
NI3165   NI        0.300667    0.867333    0.467333     0.004307
NI3166   NI        0.334000    0.834000    0.467333     0.004307
NI3167   NI        0.334000    0.867333    0.434000     0.004307
NI3168   NI        0.367333    0.834000    0.434000     0.004307
NI3169   NI        0.367333    0.867333    0.467333     0.004307
NI3170   NI        0.400667    0.834000    0.467333     0.004307
NI3171   NI        0.400667    0.867333    0.434000     0.004307
NI3172   NI        0.434000    0.834000    0.434000     0.004307
NI3173   NI        0.434000    0.867333    0.467333     0.004307
NI3174   NI        0.467333    0.834000    0.467333     0.004307
NI3175   NI        0.467333    0.867333    0.434000     0.004307
NI3176   NI        0.500667    0.834000    0.434000     0.004307
NI3177   NI        0.500667    0.867333    0.467333     0.004307
NI3178   NI        0.534000    0.834000    0.467333     0.004307
NI3179   NI        0.534000    0.867333    0.434000     0.004307
NI3180   NI        0.567333    0.834000    0.434000     0.004307
NI3181   NI        0.567333    0.867333    0.467333     0.004307
NI3182   NI        0.600667    0.834000    0.467333     0.004307
NI3183   NI        0.634000    0.834000    0.434000     0.004307
NI3184   NI        0.334000    0.000667    0.500667     0.004307
NI3185   NI        0.367333    0.000667    0.534000     0.004307
NI3186   NI        0.400667    0.000667    0.500667     0.004307
NI3187   NI        0.434000    0.000667    0.534000     0.004307
NI3188   NI        0.467333    0.000667    0.500667     0.004307
NI3189   NI        0.500667    0.000667    0.534000     0.004307
NI3190   NI        0.534000    0.000667    0.500667     0.004307
NI3191   NI        0.200667    0.067333    0.500667     0.004307
NI3192   NI        0.234000    0.034000    0.500667     0.004307
NI3193   NI        0.234000    0.067333    0.534000     0.004307
NI3194   NI        0.267333    0.034000    0.534000     0.004307
NI3195   NI        0.267333    0.067333    0.500667     0.004307
NI3196   NI        0.300667    0.034000    0.500667     0.004307
NI3197   NI        0.300667    0.067333    0.534000     0.004307
NI3198   NI        0.334000    0.034000    0.534000     0.004307
NI3199   NI        0.334000    0.067333    0.500667     0.004307
NI3200   NI        0.367333    0.034000    0.500667     0.004307
NI3201   NI        0.367333    0.067333    0.534000     0.004307
NI3202   NI        0.400667    0.034000    0.534000     0.004307
NI3203   NI        0.400667    0.067333    0.500667     0.004307
NI3204   NI        0.434000    0.034000    0.500667     0.004307
NI3205   NI        0.434000    0.067333    0.534000     0.004307
NI3206   NI        0.467333    0.034000    0.534000     0.004307
NI3207   NI        0.467333    0.067333    0.500667     0.004307
NI3208   NI        0.500667    0.034000    0.500667     0.004307
NI3209   NI        0.500667    0.067333    0.534000     0.004307
NI3210   NI        0.534000    0.034000    0.534000     0.004307
NI3211   NI        0.534000    0.067333    0.500667     0.004307
NI3212   NI        0.567333    0.034000    0.500667     0.004307
NI3213   NI        0.567333    0.067333    0.534000     0.004307
NI3214   NI        0.600667    0.034000    0.534000     0.004307
NI3215   NI        0.600667    0.067333    0.500667     0.004307
NI3216   NI        0.634000    0.034000    0.500667     0.004307
NI3217   NI        0.634000    0.067333    0.534000     0.004307
NI3218   NI        0.667333    0.067333    0.500667     0.004307
NI3219   NI        0.100667    0.134000    0.534000     0.004307
NI3220   NI        0.134000    0.100667    0.534000     0.004307
NI3221   NI        0.134000    0.134000    0.500667     0.004307
NI3222   NI        0.167333    0.100667    0.500667     0.004307
NI3223   NI        0.167333    0.134000    0.534000     0.004307
NI3224   NI        0.200667    0.100667    0.534000     0.004307
NI3225   NI        0.200667    0.134000    0.500667     0.004307
NI3226   NI        0.234000    0.100667    0.500667     0.004307
NI3227   NI        0.234000    0.134000    0.534000     0.004307
NI3228   NI        0.267333    0.100667    0.534000     0.004307
NI3229   NI        0.267333    0.134000    0.500667     0.004307
NI3230   NI        0.300667    0.100667    0.500667     0.004307
NI3231   NI        0.300667    0.134000    0.534000     0.004307
NI3232   NI        0.334000    0.100667    0.534000     0.004307
NI3233   NI        0.334000    0.134000    0.500667     0.004307
NI3234   NI        0.367333    0.100667    0.500667     0.004307
NI3235   NI        0.367333    0.134000    0.534000     0.004307
NI3236   NI        0.400667    0.100667    0.534000     0.004307
CU3237   CU        0.400667    0.134000    0.500667     0.006663
NI3238   NI        0.434000    0.100667    0.500667     0.004307
CU3239   CU        0.434000    0.134000    0.534000     0.006663
NI3240   NI        0.467333    0.100667    0.534000     0.004307
CU3241   CU        0.467333    0.134000    0.500667     0.006663
NI3242   NI        0.500667    0.100667    0.500667     0.004307
NI3243   NI        0.500667    0.134000    0.534000     0.004307
NI3244   NI        0.534000    0.100667    0.534000     0.004307
NI3245   NI        0.534000    0.134000    0.500667     0.004307
NI3246   NI        0.567333    0.100667    0.500667     0.004307
NI3247   NI        0.567333    0.134000    0.534000     0.004307
NI3248   NI        0.600667    0.100667    0.534000     0.004307
NI3249   NI        0.600667    0.134000    0.500667     0.004307
NI3250   NI        0.634000    0.100667    0.500667     0.004307
NI3251   NI        0.634000    0.134000    0.534000     0.004307
NI3252   NI        0.667333    0.100667    0.534000     0.004307
NI3253   NI        0.667333    0.134000    0.500667     0.004307
NI3254   NI        0.700667    0.100667    0.500667     0.004307
NI3255   NI        0.700667    0.134000    0.534000     0.004307
NI3256   NI        0.734000    0.100667    0.534000     0.004307
NI3257   NI        0.734000    0.134000    0.500667     0.004307
NI3258   NI        0.767333    0.134000    0.534000     0.004307
NI3259   NI        0.067333    0.200667    0.500667     0.004307
NI3260   NI        0.100667    0.167333    0.500667     0.004307
NI3261   NI        0.100667    0.200667    0.534000     0.004307
NI3262   NI        0.134000    0.167333    0.534000     0.004307
NI3263   NI        0.134000    0.200667    0.500667     0.004307
NI3264   NI        0.167333    0.167333    0.500667     0.004307
NI3265   NI        0.167333    0.200667    0.534000     0.004307
NI3266   NI        0.200667    0.167333    0.534000     0.004307
NI3267   NI        0.200667    0.200667    0.500667     0.004307
NI3268   NI        0.234000    0.167333    0.500667     0.004307
NI3269   NI        0.234000    0.200667    0.534000     0.004307
NI3270   NI        0.267333    0.167333    0.534000     0.004307
CU3271   CU        0.267333    0.200667    0.500667     0.006663
CU3272   CU        0.300667    0.167333    0.500667     0.006663
CU3273   CU        0.300667    0.200667    0.534000     0.006663
CU3274   CU        0.334000    0.167333    0.534000     0.006663
CU3275   CU        0.334000    0.200667    0.500667     0.006663
CU3276   CU        0.367333    0.167333    0.500667     0.006663
CU3277   CU        0.367333    0.200667    0.534000     0.006663
CU3278   CU        0.400667    0.167333    0.534000     0.006663
CU3279   CU        0.400667    0.200667    0.500667     0.006663
CU3280   CU        0.434000    0.167333    0.500667     0.006663
CU3281   CU        0.434000    0.200667    0.534000     0.006663
CU3282   CU        0.467333    0.167333    0.534000     0.006663
CU3283   CU        0.467333    0.200667    0.500667     0.006663
CU3284   CU        0.500667    0.167333    0.500667     0.006663
CU3285   CU        0.500667    0.200667    0.534000     0.006663
CU3286   CU        0.534000    0.167333    0.534000     0.006663
CU3287   CU        0.534000    0.200667    0.500667     0.006663
CU3288   CU        0.567333    0.167333    0.500667     0.006663
CU3289   CU        0.567333    0.200667    0.534000     0.006663
NI3290   NI        0.600667    0.167333    0.534000     0.004307
CU3291   CU        0.600667    0.200667    0.500667     0.006663
NI3292   NI        0.634000    0.167333    0.500667     0.004307
NI3293   NI        0.634000    0.200667    0.534000     0.004307
NI3294   NI        0.667333    0.167333    0.534000     0.004307
NI3295   NI        0.667333    0.200667    0.500667     0.004307
NI3296   NI        0.700667    0.167333    0.500667     0.004307
NI3297   NI        0.700667    0.200667    0.534000     0.004307
NI3298   NI        0.734000    0.167333    0.534000     0.004307
NI3299   NI        0.734000    0.200667    0.500667     0.004307
NI3300   NI        0.767333    0.167333    0.500667     0.004307
NI3301   NI        0.767333    0.200667    0.534000     0.004307
NI3302   NI        0.800667    0.200667    0.500667     0.004307
NI3303   NI        0.034000    0.234000    0.500667     0.004307
NI3304   NI        0.034000    0.267333    0.534000     0.004307
NI3305   NI        0.067333    0.234000    0.534000     0.004307
NI3306   NI        0.067333    0.267333    0.500667     0.004307
NI3307   NI        0.100667    0.234000    0.500667     0.004307
NI3308   NI        0.100667    0.267333    0.534000     0.004307
NI3309   NI        0.134000    0.234000    0.534000     0.004307
NI3310   NI        0.134000    0.267333    0.500667     0.004307
NI3311   NI        0.167333    0.234000    0.500667     0.004307
NI3312   NI        0.167333    0.267333    0.534000     0.004307
NI3313   NI        0.200667    0.234000    0.534000     0.004307
CU3314   CU        0.200667    0.267333    0.500667     0.006663
CU3315   CU        0.234000    0.234000    0.500667     0.006663
CU3316   CU        0.234000    0.267333    0.534000     0.006663
CU3317   CU        0.267333    0.234000    0.534000     0.006663
CU3318   CU        0.267333    0.267333    0.500667     0.006663
CU3319   CU        0.300667    0.234000    0.500667     0.006663
CU3320   CU        0.300667    0.267333    0.534000     0.006663
CU3321   CU        0.334000    0.234000    0.534000     0.006663
CU3322   CU        0.334000    0.267333    0.500667     0.006663
CU3323   CU        0.367333    0.234000    0.500667     0.006663
CU3324   CU        0.367333    0.267333    0.534000     0.006663
CU3325   CU        0.400667    0.234000    0.534000     0.006663
CU3326   CU        0.400667    0.267333    0.500667     0.006663
CU3327   CU        0.434000    0.234000    0.500667     0.006663
CU3328   CU        0.434000    0.267333    0.534000     0.006663
CU3329   CU        0.467333    0.234000    0.534000     0.006663
CU3330   CU        0.467333    0.267333    0.500667     0.006663
CU3331   CU        0.500667    0.234000    0.500667     0.006663
CU3332   CU        0.500667    0.267333    0.534000     0.006663
CU3333   CU        0.534000    0.234000    0.534000     0.006663
CU3334   CU        0.534000    0.267333    0.500667     0.006663
CU3335   CU        0.567333    0.234000    0.500667     0.006663
CU3336   CU        0.567333    0.267333    0.534000     0.006663
CU3337   CU        0.600667    0.234000    0.534000     0.006663
CU3338   CU        0.600667    0.267333    0.500667     0.006663
CU3339   CU        0.634000    0.234000    0.500667     0.006663
CU3340   CU        0.634000    0.267333    0.534000     0.006663
NI3341   NI        0.667333    0.234000    0.534000     0.004307
CU3342   CU        0.667333    0.267333    0.500667     0.006663
NI3343   NI        0.700667    0.234000    0.500667     0.004307
NI3344   NI        0.700667    0.267333    0.534000     0.004307
NI3345   NI        0.734000    0.234000    0.534000     0.004307
NI3346   NI        0.734000    0.267333    0.500667     0.004307
NI3347   NI        0.767333    0.234000    0.500667     0.004307
NI3348   NI        0.767333    0.267333    0.534000     0.004307
NI3349   NI        0.800667    0.234000    0.534000     0.004307
NI3350   NI        0.800667    0.267333    0.500667     0.004307
NI3351   NI        0.834000    0.234000    0.500667     0.004307
NI3352   NI        0.834000    0.267333    0.534000     0.004307
NI3353   NI        0.000667    0.334000    0.500667     0.004307
NI3354   NI        0.034000    0.300667    0.500667     0.004307
NI3355   NI        0.034000    0.334000    0.534000     0.004307
NI3356   NI        0.067333    0.300667    0.534000     0.004307
NI3357   NI        0.067333    0.334000    0.500667     0.004307
NI3358   NI        0.100667    0.300667    0.500667     0.004307
NI3359   NI        0.100667    0.334000    0.534000     0.004307
NI3360   NI        0.134000    0.300667    0.534000     0.004307
NI3361   NI        0.134000    0.334000    0.500667     0.004307
CU3362   CU        0.167333    0.300667    0.500667     0.006663
CU3363   CU        0.167333    0.334000    0.534000     0.006663
CU3364   CU        0.200667    0.300667    0.534000     0.006663
CU3365   CU        0.200667    0.334000    0.500667     0.006663
CU3366   CU        0.234000    0.300667    0.500667     0.006663
CU3367   CU        0.234000    0.334000    0.534000     0.006663
CU3368   CU        0.267333    0.300667    0.534000     0.006663
CU3369   CU        0.267333    0.334000    0.500667     0.006663
CU3370   CU        0.300667    0.300667    0.500667     0.006663
CU3371   CU        0.300667    0.334000    0.534000     0.006663
CU3372   CU        0.334000    0.300667    0.534000     0.006663
CU3373   CU        0.334000    0.334000    0.500667     0.006663
CU3374   CU        0.367333    0.300667    0.500667     0.006663
CU3375   CU        0.367333    0.334000    0.534000     0.006663
CU3376   CU        0.400667    0.300667    0.534000     0.006663
CU3377   CU        0.400667    0.334000    0.500667     0.006663
CU3378   CU        0.434000    0.300667    0.500667     0.006663
CU3379   CU        0.434000    0.334000    0.534000     0.006663
CU3380   CU        0.467333    0.300667    0.534000     0.006663
CU3381   CU        0.467333    0.334000    0.500667     0.006663
CU3382   CU        0.500667    0.300667    0.500667     0.006663
CU3383   CU        0.500667    0.334000    0.534000     0.006663
CU3384   CU        0.534000    0.300667    0.534000     0.006663
CU3385   CU        0.534000    0.334000    0.500667     0.006663
CU3386   CU        0.567333    0.300667    0.500667     0.006663
CU3387   CU        0.567333    0.334000    0.534000     0.006663
CU3388   CU        0.600667    0.300667    0.534000     0.006663
CU3389   CU        0.600667    0.334000    0.500667     0.006663
CU3390   CU        0.634000    0.300667    0.500667     0.006663
CU3391   CU        0.634000    0.334000    0.534000     0.006663
CU3392   CU        0.667333    0.300667    0.534000     0.006663
CU3393   CU        0.667333    0.334000    0.500667     0.006663
CU3394   CU        0.700667    0.300667    0.500667     0.006663
CU3395   CU        0.700667    0.334000    0.534000     0.006663
NI3396   NI        0.734000    0.300667    0.534000     0.004307
NI3397   NI        0.734000    0.334000    0.500667     0.004307
NI3398   NI        0.767333    0.300667    0.500667     0.004307
NI3399   NI        0.767333    0.334000    0.534000     0.004307
NI3400   NI        0.800667    0.300667    0.534000     0.004307
NI3401   NI        0.800667    0.334000    0.500667     0.004307
NI3402   NI        0.834000    0.300667    0.500667     0.004307
NI3403   NI        0.834000    0.334000    0.534000     0.004307
NI3404   NI        0.867333    0.334000    0.500667     0.004307
NI3405   NI        0.000667    0.367333    0.534000     0.004307
NI3406   NI        0.000667    0.400667    0.500667     0.004307
NI3407   NI        0.034000    0.367333    0.500667     0.004307
NI3408   NI        0.034000    0.400667    0.534000     0.004307
NI3409   NI        0.067333    0.367333    0.534000     0.004307
NI3410   NI        0.067333    0.400667    0.500667     0.004307
NI3411   NI        0.100667    0.367333    0.500667     0.004307
NI3412   NI        0.100667    0.400667    0.534000     0.004307
NI3413   NI        0.134000    0.367333    0.534000     0.004307
CU3414   CU        0.134000    0.400667    0.500667     0.006663
CU3415   CU        0.167333    0.367333    0.500667     0.006663
CU3416   CU        0.167333    0.400667    0.534000     0.006663
CU3417   CU        0.200667    0.367333    0.534000     0.006663
CU3418   CU        0.200667    0.400667    0.500667     0.006663
CU3419   CU        0.234000    0.367333    0.500667     0.006663
CU3420   CU        0.234000    0.400667    0.534000     0.006663
CU3421   CU        0.267333    0.367333    0.534000     0.006663
CU3422   CU        0.267333    0.400667    0.500667     0.006663
CU3423   CU        0.300667    0.367333    0.500667     0.006663
CU3424   CU        0.300667    0.400667    0.534000     0.006663
CU3425   CU        0.334000    0.367333    0.534000     0.006663
CU3426   CU        0.334000    0.400667    0.500667     0.006663
CU3427   CU        0.367333    0.367333    0.500667     0.006663
CU3428   CU        0.367333    0.400667    0.534000     0.006663
CU3429   CU        0.400667    0.367333    0.534000     0.006663
CU3430   CU        0.400667    0.400667    0.500667     0.006663
CU3431   CU        0.434000    0.367333    0.500667     0.006663
CU3432   CU        0.434000    0.400667    0.534000     0.006663
CU3433   CU        0.467333    0.367333    0.534000     0.006663
CU3434   CU        0.467333    0.400667    0.500667     0.006663
CU3435   CU        0.500667    0.367333    0.500667     0.006663
CU3436   CU        0.500667    0.400667    0.534000     0.006663
CU3437   CU        0.534000    0.367333    0.534000     0.006663
CU3438   CU        0.534000    0.400667    0.500667     0.006663
CU3439   CU        0.567333    0.367333    0.500667     0.006663
CU3440   CU        0.567333    0.400667    0.534000     0.006663
CU3441   CU        0.600667    0.367333    0.534000     0.006663
CU3442   CU        0.600667    0.400667    0.500667     0.006663
CU3443   CU        0.634000    0.367333    0.500667     0.006663
CU3444   CU        0.634000    0.400667    0.534000     0.006663
CU3445   CU        0.667333    0.367333    0.534000     0.006663
CU3446   CU        0.667333    0.400667    0.500667     0.006663
CU3447   CU        0.700667    0.367333    0.500667     0.006663
CU3448   CU        0.700667    0.400667    0.534000     0.006663
NI3449   NI        0.734000    0.367333    0.534000     0.004307
CU3450   CU        0.734000    0.400667    0.500667     0.006663
NI3451   NI        0.767333    0.367333    0.500667     0.004307
NI3452   NI        0.767333    0.400667    0.534000     0.004307
NI3453   NI        0.800667    0.367333    0.534000     0.004307
NI3454   NI        0.800667    0.400667    0.500667     0.004307
NI3455   NI        0.834000    0.367333    0.500667     0.004307
NI3456   NI        0.834000    0.400667    0.534000     0.004307
NI3457   NI        0.867333    0.367333    0.534000     0.004307
NI3458   NI        0.867333    0.400667    0.500667     0.004307
NI3459   NI        0.000667    0.434000    0.534000     0.004307
NI3460   NI        0.000667    0.467333    0.500667     0.004307
NI3461   NI        0.034000    0.434000    0.500667     0.004307
NI3462   NI        0.034000    0.467333    0.534000     0.004307
NI3463   NI        0.067333    0.434000    0.534000     0.004307
NI3464   NI        0.067333    0.467333    0.500667     0.004307
NI3465   NI        0.100667    0.434000    0.500667     0.004307
NI3466   NI        0.100667    0.467333    0.534000     0.004307
CU3467   CU        0.134000    0.434000    0.534000     0.006663
CU3468   CU        0.134000    0.467333    0.500667     0.006663
CU3469   CU        0.167333    0.434000    0.500667     0.006663
CU3470   CU        0.167333    0.467333    0.534000     0.006663
CU3471   CU        0.200667    0.434000    0.534000     0.006663
CU3472   CU        0.200667    0.467333    0.500667     0.006663
CU3473   CU        0.234000    0.434000    0.500667     0.006663
CU3474   CU        0.234000    0.467333    0.534000     0.006663
CU3475   CU        0.267333    0.434000    0.534000     0.006663
CU3476   CU        0.267333    0.467333    0.500667     0.006663
CU3477   CU        0.300667    0.434000    0.500667     0.006663
CU3478   CU        0.300667    0.467333    0.534000     0.006663
CU3479   CU        0.334000    0.434000    0.534000     0.006663
CU3480   CU        0.334000    0.467333    0.500667     0.006663
CU3481   CU        0.367333    0.434000    0.500667     0.006663
CU3482   CU        0.367333    0.467333    0.534000     0.006663
CU3483   CU        0.400667    0.434000    0.534000     0.006663
CU3484   CU        0.400667    0.467333    0.500667     0.006663
CU3485   CU        0.434000    0.434000    0.500667     0.006663
CU3486   CU        0.434000    0.467333    0.534000     0.006663
CU3487   CU        0.467333    0.434000    0.534000     0.006663
CU3488   CU        0.467333    0.467333    0.500667     0.006663
CU3489   CU        0.500667    0.434000    0.500667     0.006663
CU3490   CU        0.500667    0.467333    0.534000     0.006663
CU3491   CU        0.534000    0.434000    0.534000     0.006663
CU3492   CU        0.534000    0.467333    0.500667     0.006663
CU3493   CU        0.567333    0.434000    0.500667     0.006663
CU3494   CU        0.567333    0.467333    0.534000     0.006663
CU3495   CU        0.600667    0.434000    0.534000     0.006663
CU3496   CU        0.600667    0.467333    0.500667     0.006663
CU3497   CU        0.634000    0.434000    0.500667     0.006663
CU3498   CU        0.634000    0.467333    0.534000     0.006663
CU3499   CU        0.667333    0.434000    0.534000     0.006663
CU3500   CU        0.667333    0.467333    0.500667     0.006663
CU3501   CU        0.700667    0.434000    0.500667     0.006663
CU3502   CU        0.700667    0.467333    0.534000     0.006663
CU3503   CU        0.734000    0.434000    0.534000     0.006663
CU3504   CU        0.734000    0.467333    0.500667     0.006663
NI3505   NI        0.767333    0.434000    0.500667     0.004307
NI3506   NI        0.767333    0.467333    0.534000     0.004307
NI3507   NI        0.800667    0.434000    0.534000     0.004307
NI3508   NI        0.800667    0.467333    0.500667     0.004307
NI3509   NI        0.834000    0.434000    0.500667     0.004307
NI3510   NI        0.834000    0.467333    0.534000     0.004307
NI3511   NI        0.867333    0.434000    0.534000     0.004307
NI3512   NI        0.867333    0.467333    0.500667     0.004307
NI3513   NI        0.000667    0.500667    0.534000     0.004307
NI3514   NI        0.000667    0.534000    0.500667     0.004307
NI3515   NI        0.034000    0.500667    0.500667     0.004307
NI3516   NI        0.034000    0.534000    0.534000     0.004307
NI3517   NI        0.067333    0.500667    0.534000     0.004307
NI3518   NI        0.067333    0.534000    0.500667     0.004307
NI3519   NI        0.100667    0.500667    0.500667     0.004307
NI3520   NI        0.100667    0.534000    0.534000     0.004307
NI3521   NI        0.134000    0.500667    0.534000     0.004307
NI3522   NI        0.134000    0.534000    0.500667     0.004307
CU3523   CU        0.167333    0.500667    0.500667     0.006663
CU3524   CU        0.167333    0.534000    0.534000     0.006663
CU3525   CU        0.200667    0.500667    0.534000     0.006663
CU3526   CU        0.200667    0.534000    0.500667     0.006663
CU3527   CU        0.234000    0.500667    0.500667     0.006663
CU3528   CU        0.234000    0.534000    0.534000     0.006663
CU3529   CU        0.267333    0.500667    0.534000     0.006663
CU3530   CU        0.267333    0.534000    0.500667     0.006663
CU3531   CU        0.300667    0.500667    0.500667     0.006663
CU3532   CU        0.300667    0.534000    0.534000     0.006663
CU3533   CU        0.334000    0.500667    0.534000     0.006663
CU3534   CU        0.334000    0.534000    0.500667     0.006663
CU3535   CU        0.367333    0.500667    0.500667     0.006663
CU3536   CU        0.367333    0.534000    0.534000     0.006663
CU3537   CU        0.400667    0.500667    0.534000     0.006663
CU3538   CU        0.400667    0.534000    0.500667     0.006663
CU3539   CU        0.434000    0.500667    0.500667     0.006663
CU3540   CU        0.434000    0.534000    0.534000     0.006663
CU3541   CU        0.467333    0.500667    0.534000     0.006663
CU3542   CU        0.467333    0.534000    0.500667     0.006663
CU3543   CU        0.500667    0.500667    0.500667     0.006663
CU3544   CU        0.500667    0.534000    0.534000     0.006663
CU3545   CU        0.534000    0.500667    0.534000     0.006663
CU3546   CU        0.534000    0.534000    0.500667     0.006663
CU3547   CU        0.567333    0.500667    0.500667     0.006663
CU3548   CU        0.567333    0.534000    0.534000     0.006663
CU3549   CU        0.600667    0.500667    0.534000     0.006663
CU3550   CU        0.600667    0.534000    0.500667     0.006663
CU3551   CU        0.634000    0.500667    0.500667     0.006663
CU3552   CU        0.634000    0.534000    0.534000     0.006663
CU3553   CU        0.667333    0.500667    0.534000     0.006663
CU3554   CU        0.667333    0.534000    0.500667     0.006663
CU3555   CU        0.700667    0.500667    0.500667     0.006663
CU3556   CU        0.700667    0.534000    0.534000     0.006663
NI3557   NI        0.734000    0.500667    0.534000     0.004307
NI3558   NI        0.734000    0.534000    0.500667     0.004307
NI3559   NI        0.767333    0.500667    0.500667     0.004307
NI3560   NI        0.767333    0.534000    0.534000     0.004307
NI3561   NI        0.800667    0.500667    0.534000     0.004307
NI3562   NI        0.800667    0.534000    0.500667     0.004307
NI3563   NI        0.834000    0.500667    0.500667     0.004307
NI3564   NI        0.834000    0.534000    0.534000     0.004307
NI3565   NI        0.867333    0.500667    0.534000     0.004307
NI3566   NI        0.867333    0.534000    0.500667     0.004307
NI3567   NI        0.034000    0.567333    0.500667     0.004307
NI3568   NI        0.034000    0.600667    0.534000     0.004307
NI3569   NI        0.067333    0.567333    0.534000     0.004307
NI3570   NI        0.067333    0.600667    0.500667     0.004307
NI3571   NI        0.100667    0.567333    0.500667     0.004307
NI3572   NI        0.100667    0.600667    0.534000     0.004307
NI3573   NI        0.134000    0.567333    0.534000     0.004307
NI3574   NI        0.134000    0.600667    0.500667     0.004307
CU3575   CU        0.167333    0.567333    0.500667     0.006663
NI3576   NI        0.167333    0.600667    0.534000     0.004307
CU3577   CU        0.200667    0.567333    0.534000     0.006663
CU3578   CU        0.200667    0.600667    0.500667     0.006663
CU3579   CU        0.234000    0.567333    0.500667     0.006663
CU3580   CU        0.234000    0.600667    0.534000     0.006663
CU3581   CU        0.267333    0.567333    0.534000     0.006663
CU3582   CU        0.267333    0.600667    0.500667     0.006663
CU3583   CU        0.300667    0.567333    0.500667     0.006663
CU3584   CU        0.300667    0.600667    0.534000     0.006663
CU3585   CU        0.334000    0.567333    0.534000     0.006663
CU3586   CU        0.334000    0.600667    0.500667     0.006663
CU3587   CU        0.367333    0.567333    0.500667     0.006663
CU3588   CU        0.367333    0.600667    0.534000     0.006663
CU3589   CU        0.400667    0.567333    0.534000     0.006663
CU3590   CU        0.400667    0.600667    0.500667     0.006663
CU3591   CU        0.434000    0.567333    0.500667     0.006663
CU3592   CU        0.434000    0.600667    0.534000     0.006663
CU3593   CU        0.467333    0.567333    0.534000     0.006663
CU3594   CU        0.467333    0.600667    0.500667     0.006663
CU3595   CU        0.500667    0.567333    0.500667     0.006663
CU3596   CU        0.500667    0.600667    0.534000     0.006663
CU3597   CU        0.534000    0.567333    0.534000     0.006663
CU3598   CU        0.534000    0.600667    0.500667     0.006663
CU3599   CU        0.567333    0.567333    0.500667     0.006663
CU3600   CU        0.567333    0.600667    0.534000     0.006663
CU3601   CU        0.600667    0.567333    0.534000     0.006663
CU3602   CU        0.600667    0.600667    0.500667     0.006663
CU3603   CU        0.634000    0.567333    0.500667     0.006663
CU3604   CU        0.634000    0.600667    0.534000     0.006663
CU3605   CU        0.667333    0.567333    0.534000     0.006663
CU3606   CU        0.667333    0.600667    0.500667     0.006663
CU3607   CU        0.700667    0.567333    0.500667     0.006663
NI3608   NI        0.700667    0.600667    0.534000     0.004307
NI3609   NI        0.734000    0.567333    0.534000     0.004307
NI3610   NI        0.734000    0.600667    0.500667     0.004307
NI3611   NI        0.767333    0.567333    0.500667     0.004307
NI3612   NI        0.767333    0.600667    0.534000     0.004307
NI3613   NI        0.800667    0.567333    0.534000     0.004307
NI3614   NI        0.800667    0.600667    0.500667     0.004307
NI3615   NI        0.834000    0.567333    0.500667     0.004307
NI3616   NI        0.834000    0.600667    0.534000     0.004307
NI3617   NI        0.034000    0.634000    0.500667     0.004307
NI3618   NI        0.067333    0.634000    0.534000     0.004307
NI3619   NI        0.067333    0.667333    0.500667     0.004307
NI3620   NI        0.100667    0.634000    0.500667     0.004307
NI3621   NI        0.100667    0.667333    0.534000     0.004307
NI3622   NI        0.134000    0.634000    0.534000     0.004307
NI3623   NI        0.134000    0.667333    0.500667     0.004307
NI3624   NI        0.167333    0.634000    0.500667     0.004307
NI3625   NI        0.167333    0.667333    0.534000     0.004307
NI3626   NI        0.200667    0.634000    0.534000     0.004307
NI3627   NI        0.200667    0.667333    0.500667     0.004307
CU3628   CU        0.234000    0.634000    0.500667     0.006663
NI3629   NI        0.234000    0.667333    0.534000     0.004307
CU3630   CU        0.267333    0.634000    0.534000     0.006663
CU3631   CU        0.267333    0.667333    0.500667     0.006663
CU3632   CU        0.300667    0.634000    0.500667     0.006663
CU3633   CU        0.300667    0.667333    0.534000     0.006663
CU3634   CU        0.334000    0.634000    0.534000     0.006663
CU3635   CU        0.334000    0.667333    0.500667     0.006663
CU3636   CU        0.367333    0.634000    0.500667     0.006663
CU3637   CU        0.367333    0.667333    0.534000     0.006663
CU3638   CU        0.400667    0.634000    0.534000     0.006663
CU3639   CU        0.400667    0.667333    0.500667     0.006663
CU3640   CU        0.434000    0.634000    0.500667     0.006663
CU3641   CU        0.434000    0.667333    0.534000     0.006663
CU3642   CU        0.467333    0.634000    0.534000     0.006663
CU3643   CU        0.467333    0.667333    0.500667     0.006663
CU3644   CU        0.500667    0.634000    0.500667     0.006663
CU3645   CU        0.500667    0.667333    0.534000     0.006663
CU3646   CU        0.534000    0.634000    0.534000     0.006663
CU3647   CU        0.534000    0.667333    0.500667     0.006663
CU3648   CU        0.567333    0.634000    0.500667     0.006663
CU3649   CU        0.567333    0.667333    0.534000     0.006663
CU3650   CU        0.600667    0.634000    0.534000     0.006663
CU3651   CU        0.600667    0.667333    0.500667     0.006663
CU3652   CU        0.634000    0.634000    0.500667     0.006663
NI3653   NI        0.634000    0.667333    0.534000     0.004307
NI3654   NI        0.667333    0.634000    0.534000     0.004307
NI3655   NI        0.667333    0.667333    0.500667     0.004307
NI3656   NI        0.700667    0.634000    0.500667     0.004307
NI3657   NI        0.700667    0.667333    0.534000     0.004307
NI3658   NI        0.734000    0.634000    0.534000     0.004307
NI3659   NI        0.734000    0.667333    0.500667     0.004307
NI3660   NI        0.767333    0.634000    0.500667     0.004307
NI3661   NI        0.767333    0.667333    0.534000     0.004307
NI3662   NI        0.800667    0.634000    0.534000     0.004307
NI3663   NI        0.800667    0.667333    0.500667     0.004307
NI3664   NI        0.834000    0.634000    0.500667     0.004307
NI3665   NI        0.100667    0.700667    0.500667     0.004307
NI3666   NI        0.100667    0.734000    0.534000     0.004307
NI3667   NI        0.134000    0.700667    0.534000     0.004307
NI3668   NI        0.134000    0.734000    0.500667     0.004307
NI3669   NI        0.167333    0.700667    0.500667     0.004307
NI3670   NI        0.167333    0.734000    0.534000     0.004307
NI3671   NI        0.200667    0.700667    0.534000     0.004307
NI3672   NI        0.200667    0.734000    0.500667     0.004307
NI3673   NI        0.234000    0.700667    0.500667     0.004307
NI3674   NI        0.234000    0.734000    0.534000     0.004307
NI3675   NI        0.267333    0.700667    0.534000     0.004307
NI3676   NI        0.267333    0.734000    0.500667     0.004307
CU3677   CU        0.300667    0.700667    0.500667     0.006663
NI3678   NI        0.300667    0.734000    0.534000     0.004307
CU3679   CU        0.334000    0.700667    0.534000     0.006663
NI3680   NI        0.334000    0.734000    0.500667     0.004307
CU3681   CU        0.367333    0.700667    0.500667     0.006663
NI3682   NI        0.367333    0.734000    0.534000     0.004307
CU3683   CU        0.400667    0.700667    0.534000     0.006663
CU3684   CU        0.400667    0.734000    0.500667     0.006663
CU3685   CU        0.434000    0.700667    0.500667     0.006663
CU3686   CU        0.434000    0.734000    0.534000     0.006663
CU3687   CU        0.467333    0.700667    0.534000     0.006663
CU3688   CU        0.467333    0.734000    0.500667     0.006663
CU3689   CU        0.500667    0.700667    0.500667     0.006663
NI3690   NI        0.500667    0.734000    0.534000     0.004307
CU3691   CU        0.534000    0.700667    0.534000     0.006663
NI3692   NI        0.534000    0.734000    0.500667     0.004307
CU3693   CU        0.567333    0.700667    0.500667     0.006663
NI3694   NI        0.567333    0.734000    0.534000     0.004307
NI3695   NI        0.600667    0.700667    0.534000     0.004307
NI3696   NI        0.600667    0.734000    0.500667     0.004307
NI3697   NI        0.634000    0.700667    0.500667     0.004307
NI3698   NI        0.634000    0.734000    0.534000     0.004307
NI3699   NI        0.667333    0.700667    0.534000     0.004307
NI3700   NI        0.667333    0.734000    0.500667     0.004307
NI3701   NI        0.700667    0.700667    0.500667     0.004307
NI3702   NI        0.700667    0.734000    0.534000     0.004307
NI3703   NI        0.734000    0.700667    0.534000     0.004307
NI3704   NI        0.734000    0.734000    0.500667     0.004307
NI3705   NI        0.767333    0.700667    0.500667     0.004307
NI3706   NI        0.767333    0.734000    0.534000     0.004307
NI3707   NI        0.134000    0.767333    0.534000     0.004307
NI3708   NI        0.167333    0.767333    0.500667     0.004307
NI3709   NI        0.200667    0.767333    0.534000     0.004307
NI3710   NI        0.200667    0.800667    0.500667     0.004307
NI3711   NI        0.234000    0.767333    0.500667     0.004307
NI3712   NI        0.234000    0.800667    0.534000     0.004307
NI3713   NI        0.267333    0.767333    0.534000     0.004307
NI3714   NI        0.267333    0.800667    0.500667     0.004307
NI3715   NI        0.300667    0.767333    0.500667     0.004307
NI3716   NI        0.300667    0.800667    0.534000     0.004307
NI3717   NI        0.334000    0.767333    0.534000     0.004307
NI3718   NI        0.334000    0.800667    0.500667     0.004307
NI3719   NI        0.367333    0.767333    0.500667     0.004307
NI3720   NI        0.367333    0.800667    0.534000     0.004307
NI3721   NI        0.400667    0.767333    0.534000     0.004307
NI3722   NI        0.400667    0.800667    0.500667     0.004307
NI3723   NI        0.434000    0.767333    0.500667     0.004307
NI3724   NI        0.434000    0.800667    0.534000     0.004307
NI3725   NI        0.467333    0.767333    0.534000     0.004307
NI3726   NI        0.467333    0.800667    0.500667     0.004307
NI3727   NI        0.500667    0.767333    0.500667     0.004307
NI3728   NI        0.500667    0.800667    0.534000     0.004307
NI3729   NI        0.534000    0.767333    0.534000     0.004307
NI3730   NI        0.534000    0.800667    0.500667     0.004307
NI3731   NI        0.567333    0.767333    0.500667     0.004307
NI3732   NI        0.567333    0.800667    0.534000     0.004307
NI3733   NI        0.600667    0.767333    0.534000     0.004307
NI3734   NI        0.600667    0.800667    0.500667     0.004307
NI3735   NI        0.634000    0.767333    0.500667     0.004307
NI3736   NI        0.634000    0.800667    0.534000     0.004307
NI3737   NI        0.667333    0.767333    0.534000     0.004307
NI3738   NI        0.667333    0.800667    0.500667     0.004307
NI3739   NI        0.700667    0.767333    0.500667     0.004307
NI3740   NI        0.734000    0.767333    0.534000     0.004307
NI3741   NI        0.234000    0.834000    0.500667     0.004307
NI3742   NI        0.267333    0.834000    0.534000     0.004307
NI3743   NI        0.300667    0.834000    0.500667     0.004307
NI3744   NI        0.334000    0.834000    0.534000     0.004307
NI3745   NI        0.334000    0.867333    0.500667     0.004307
NI3746   NI        0.367333    0.834000    0.500667     0.004307
NI3747   NI        0.367333    0.867333    0.534000     0.004307
NI3748   NI        0.400667    0.834000    0.534000     0.004307
NI3749   NI        0.400667    0.867333    0.500667     0.004307
NI3750   NI        0.434000    0.834000    0.500667     0.004307
NI3751   NI        0.434000    0.867333    0.534000     0.004307
NI3752   NI        0.467333    0.834000    0.534000     0.004307
NI3753   NI        0.467333    0.867333    0.500667     0.004307
NI3754   NI        0.500667    0.834000    0.500667     0.004307
NI3755   NI        0.500667    0.867333    0.534000     0.004307
NI3756   NI        0.534000    0.834000    0.534000     0.004307
NI3757   NI        0.534000    0.867333    0.500667     0.004307
NI3758   NI        0.567333    0.834000    0.500667     0.004307
NI3759   NI        0.600667    0.834000    0.534000     0.004307
NI3760   NI        0.634000    0.834000    0.500667     0.004307
NI3761   NI        0.400667    0.000667    0.567333     0.004307
NI3762   NI        0.467333    0.000667    0.567333     0.004307
NI3763   NI        0.200667    0.067333    0.567333     0.004307
NI3764   NI        0.234000    0.067333    0.600667     0.004307
NI3765   NI        0.267333    0.067333    0.567333     0.004307
NI3766   NI        0.300667    0.034000    0.567333     0.004307
NI3767   NI        0.300667    0.067333    0.600667     0.004307
NI3768   NI        0.334000    0.034000    0.600667     0.004307
NI3769   NI        0.334000    0.067333    0.567333     0.004307
NI3770   NI        0.367333    0.034000    0.567333     0.004307
NI3771   NI        0.367333    0.067333    0.600667     0.004307
NI3772   NI        0.400667    0.034000    0.600667     0.004307
NI3773   NI        0.400667    0.067333    0.567333     0.004307
NI3774   NI        0.434000    0.034000    0.567333     0.004307
NI3775   NI        0.434000    0.067333    0.600667     0.004307
NI3776   NI        0.467333    0.034000    0.600667     0.004307
NI3777   NI        0.467333    0.067333    0.567333     0.004307
NI3778   NI        0.500667    0.034000    0.567333     0.004307
NI3779   NI        0.500667    0.067333    0.600667     0.004307
NI3780   NI        0.534000    0.034000    0.600667     0.004307
NI3781   NI        0.534000    0.067333    0.567333     0.004307
NI3782   NI        0.567333    0.034000    0.567333     0.004307
NI3783   NI        0.567333    0.067333    0.600667     0.004307
NI3784   NI        0.600667    0.067333    0.567333     0.004307
NI3785   NI        0.634000    0.067333    0.600667     0.004307
NI3786   NI        0.667333    0.067333    0.567333     0.004307
NI3787   NI        0.134000    0.134000    0.567333     0.004307
NI3788   NI        0.167333    0.100667    0.567333     0.004307
NI3789   NI        0.167333    0.134000    0.600667     0.004307
NI3790   NI        0.200667    0.100667    0.600667     0.004307
NI3791   NI        0.200667    0.134000    0.567333     0.004307
NI3792   NI        0.234000    0.100667    0.567333     0.004307
NI3793   NI        0.234000    0.134000    0.600667     0.004307
NI3794   NI        0.267333    0.100667    0.600667     0.004307
NI3795   NI        0.267333    0.134000    0.567333     0.004307
NI3796   NI        0.300667    0.100667    0.567333     0.004307
NI3797   NI        0.300667    0.134000    0.600667     0.004307
NI3798   NI        0.334000    0.100667    0.600667     0.004307
NI3799   NI        0.334000    0.134000    0.567333     0.004307
NI3800   NI        0.367333    0.100667    0.567333     0.004307
NI3801   NI        0.367333    0.134000    0.600667     0.004307
NI3802   NI        0.400667    0.100667    0.600667     0.004307
NI3803   NI        0.400667    0.134000    0.567333     0.004307
NI3804   NI        0.434000    0.100667    0.567333     0.004307
NI3805   NI        0.434000    0.134000    0.600667     0.004307
NI3806   NI        0.467333    0.100667    0.600667     0.004307
NI3807   NI        0.467333    0.134000    0.567333     0.004307
NI3808   NI        0.500667    0.100667    0.567333     0.004307
NI3809   NI        0.500667    0.134000    0.600667     0.004307
NI3810   NI        0.534000    0.100667    0.600667     0.004307
NI3811   NI        0.534000    0.134000    0.567333     0.004307
NI3812   NI        0.567333    0.100667    0.567333     0.004307
NI3813   NI        0.567333    0.134000    0.600667     0.004307
NI3814   NI        0.600667    0.100667    0.600667     0.004307
NI3815   NI        0.600667    0.134000    0.567333     0.004307
NI3816   NI        0.634000    0.100667    0.567333     0.004307
NI3817   NI        0.634000    0.134000    0.600667     0.004307
NI3818   NI        0.667333    0.100667    0.600667     0.004307
NI3819   NI        0.667333    0.134000    0.567333     0.004307
NI3820   NI        0.700667    0.100667    0.567333     0.004307
NI3821   NI        0.700667    0.134000    0.600667     0.004307
NI3822   NI        0.734000    0.134000    0.567333     0.004307
NI3823   NI        0.067333    0.200667    0.567333     0.004307
NI3824   NI        0.100667    0.167333    0.567333     0.004307
NI3825   NI        0.100667    0.200667    0.600667     0.004307
NI3826   NI        0.134000    0.167333    0.600667     0.004307
NI3827   NI        0.134000    0.200667    0.567333     0.004307
NI3828   NI        0.167333    0.167333    0.567333     0.004307
NI3829   NI        0.167333    0.200667    0.600667     0.004307
NI3830   NI        0.200667    0.167333    0.600667     0.004307
NI3831   NI        0.200667    0.200667    0.567333     0.004307
NI3832   NI        0.234000    0.167333    0.567333     0.004307
NI3833   NI        0.234000    0.200667    0.600667     0.004307
NI3834   NI        0.267333    0.167333    0.600667     0.004307
CU3835   CU        0.267333    0.200667    0.567333     0.006663
NI3836   NI        0.300667    0.167333    0.567333     0.004307
CU3837   CU        0.300667    0.200667    0.600667     0.006663
NI3838   NI        0.334000    0.167333    0.600667     0.004307
CU3839   CU        0.334000    0.200667    0.567333     0.006663
CU3840   CU        0.367333    0.167333    0.567333     0.006663
CU3841   CU        0.367333    0.200667    0.600667     0.006663
CU3842   CU        0.400667    0.167333    0.600667     0.006663
CU3843   CU        0.400667    0.200667    0.567333     0.006663
CU3844   CU        0.434000    0.167333    0.567333     0.006663
CU3845   CU        0.434000    0.200667    0.600667     0.006663
CU3846   CU        0.467333    0.167333    0.600667     0.006663
CU3847   CU        0.467333    0.200667    0.567333     0.006663
CU3848   CU        0.500667    0.167333    0.567333     0.006663
CU3849   CU        0.500667    0.200667    0.600667     0.006663
NI3850   NI        0.534000    0.167333    0.600667     0.004307
CU3851   CU        0.534000    0.200667    0.567333     0.006663
NI3852   NI        0.567333    0.167333    0.567333     0.004307
CU3853   CU        0.567333    0.200667    0.600667     0.006663
NI3854   NI        0.600667    0.167333    0.600667     0.004307
CU3855   CU        0.600667    0.200667    0.567333     0.006663
NI3856   NI        0.634000    0.167333    0.567333     0.004307
NI3857   NI        0.634000    0.200667    0.600667     0.004307
NI3858   NI        0.667333    0.167333    0.600667     0.004307
NI3859   NI        0.667333    0.200667    0.567333     0.004307
NI3860   NI        0.700667    0.167333    0.567333     0.004307
NI3861   NI        0.700667    0.200667    0.600667     0.004307
NI3862   NI        0.734000    0.167333    0.600667     0.004307
NI3863   NI        0.734000    0.200667    0.567333     0.004307
NI3864   NI        0.767333    0.167333    0.567333     0.004307
NI3865   NI        0.767333    0.200667    0.600667     0.004307
NI3866   NI        0.800667    0.200667    0.567333     0.004307
NI3867   NI        0.067333    0.234000    0.600667     0.004307
NI3868   NI        0.067333    0.267333    0.567333     0.004307
NI3869   NI        0.100667    0.234000    0.567333     0.004307
NI3870   NI        0.100667    0.267333    0.600667     0.004307
NI3871   NI        0.134000    0.234000    0.600667     0.004307
NI3872   NI        0.134000    0.267333    0.567333     0.004307
NI3873   NI        0.167333    0.234000    0.567333     0.004307
NI3874   NI        0.167333    0.267333    0.600667     0.004307
NI3875   NI        0.200667    0.234000    0.600667     0.004307
CU3876   CU        0.200667    0.267333    0.567333     0.006663
CU3877   CU        0.234000    0.234000    0.567333     0.006663
CU3878   CU        0.234000    0.267333    0.600667     0.006663
CU3879   CU        0.267333    0.234000    0.600667     0.006663
CU3880   CU        0.267333    0.267333    0.567333     0.006663
CU3881   CU        0.300667    0.234000    0.567333     0.006663
CU3882   CU        0.300667    0.267333    0.600667     0.006663
CU3883   CU        0.334000    0.234000    0.600667     0.006663
CU3884   CU        0.334000    0.267333    0.567333     0.006663
CU3885   CU        0.367333    0.234000    0.567333     0.006663
CU3886   CU        0.367333    0.267333    0.600667     0.006663
CU3887   CU        0.400667    0.234000    0.600667     0.006663
CU3888   CU        0.400667    0.267333    0.567333     0.006663
CU3889   CU        0.434000    0.234000    0.567333     0.006663
CU3890   CU        0.434000    0.267333    0.600667     0.006663
CU3891   CU        0.467333    0.234000    0.600667     0.006663
CU3892   CU        0.467333    0.267333    0.567333     0.006663
CU3893   CU        0.500667    0.234000    0.567333     0.006663
CU3894   CU        0.500667    0.267333    0.600667     0.006663
CU3895   CU        0.534000    0.234000    0.600667     0.006663
CU3896   CU        0.534000    0.267333    0.567333     0.006663
CU3897   CU        0.567333    0.234000    0.567333     0.006663
CU3898   CU        0.567333    0.267333    0.600667     0.006663
CU3899   CU        0.600667    0.234000    0.600667     0.006663
CU3900   CU        0.600667    0.267333    0.567333     0.006663
CU3901   CU        0.634000    0.234000    0.567333     0.006663
CU3902   CU        0.634000    0.267333    0.600667     0.006663
NI3903   NI        0.667333    0.234000    0.600667     0.004307
CU3904   CU        0.667333    0.267333    0.567333     0.006663
NI3905   NI        0.700667    0.234000    0.567333     0.004307
NI3906   NI        0.700667    0.267333    0.600667     0.004307
NI3907   NI        0.734000    0.234000    0.600667     0.004307
NI3908   NI        0.734000    0.267333    0.567333     0.004307
NI3909   NI        0.767333    0.234000    0.567333     0.004307
NI3910   NI        0.767333    0.267333    0.600667     0.004307
NI3911   NI        0.800667    0.234000    0.600667     0.004307
NI3912   NI        0.800667    0.267333    0.567333     0.004307
NI3913   NI        0.034000    0.300667    0.567333     0.004307
NI3914   NI        0.034000    0.334000    0.600667     0.004307
NI3915   NI        0.067333    0.300667    0.600667     0.004307
NI3916   NI        0.067333    0.334000    0.567333     0.004307
NI3917   NI        0.100667    0.300667    0.567333     0.004307
NI3918   NI        0.100667    0.334000    0.600667     0.004307
NI3919   NI        0.134000    0.300667    0.600667     0.004307
NI3920   NI        0.134000    0.334000    0.567333     0.004307
NI3921   NI        0.167333    0.300667    0.567333     0.004307
NI3922   NI        0.167333    0.334000    0.600667     0.004307
CU3923   CU        0.200667    0.300667    0.600667     0.006663
CU3924   CU        0.200667    0.334000    0.567333     0.006663
CU3925   CU        0.234000    0.300667    0.567333     0.006663
CU3926   CU        0.234000    0.334000    0.600667     0.006663
CU3927   CU        0.267333    0.300667    0.600667     0.006663
CU3928   CU        0.267333    0.334000    0.567333     0.006663
CU3929   CU        0.300667    0.300667    0.567333     0.006663
CU3930   CU        0.300667    0.334000    0.600667     0.006663
CU3931   CU        0.334000    0.300667    0.600667     0.006663
CU3932   CU        0.334000    0.334000    0.567333     0.006663
CU3933   CU        0.367333    0.300667    0.567333     0.006663
CU3934   CU        0.367333    0.334000    0.600667     0.006663
CU3935   CU        0.400667    0.300667    0.600667     0.006663
CU3936   CU        0.400667    0.334000    0.567333     0.006663
CU3937   CU        0.434000    0.300667    0.567333     0.006663
CU3938   CU        0.434000    0.334000    0.600667     0.006663
CU3939   CU        0.467333    0.300667    0.600667     0.006663
CU3940   CU        0.467333    0.334000    0.567333     0.006663
CU3941   CU        0.500667    0.300667    0.567333     0.006663
CU3942   CU        0.500667    0.334000    0.600667     0.006663
CU3943   CU        0.534000    0.300667    0.600667     0.006663
CU3944   CU        0.534000    0.334000    0.567333     0.006663
CU3945   CU        0.567333    0.300667    0.567333     0.006663
CU3946   CU        0.567333    0.334000    0.600667     0.006663
CU3947   CU        0.600667    0.300667    0.600667     0.006663
CU3948   CU        0.600667    0.334000    0.567333     0.006663
CU3949   CU        0.634000    0.300667    0.567333     0.006663
CU3950   CU        0.634000    0.334000    0.600667     0.006663
CU3951   CU        0.667333    0.300667    0.600667     0.006663
CU3952   CU        0.667333    0.334000    0.567333     0.006663
NI3953   NI        0.700667    0.300667    0.567333     0.004307
NI3954   NI        0.700667    0.334000    0.600667     0.004307
NI3955   NI        0.734000    0.300667    0.600667     0.004307
NI3956   NI        0.734000    0.334000    0.567333     0.004307
NI3957   NI        0.767333    0.300667    0.567333     0.004307
NI3958   NI        0.767333    0.334000    0.600667     0.004307
NI3959   NI        0.800667    0.300667    0.600667     0.004307
NI3960   NI        0.800667    0.334000    0.567333     0.004307
NI3961   NI        0.834000    0.300667    0.567333     0.004307
NI3962   NI        0.834000    0.334000    0.600667     0.004307
NI3963   NI        0.000667    0.400667    0.567333     0.004307
NI3964   NI        0.034000    0.367333    0.567333     0.004307
NI3965   NI        0.034000    0.400667    0.600667     0.004307
NI3966   NI        0.067333    0.367333    0.600667     0.004307
NI3967   NI        0.067333    0.400667    0.567333     0.004307
NI3968   NI        0.100667    0.367333    0.567333     0.004307
NI3969   NI        0.100667    0.400667    0.600667     0.004307
NI3970   NI        0.134000    0.367333    0.600667     0.004307
NI3971   NI        0.134000    0.400667    0.567333     0.004307
CU3972   CU        0.167333    0.367333    0.567333     0.006663
CU3973   CU        0.167333    0.400667    0.600667     0.006663
CU3974   CU        0.200667    0.367333    0.600667     0.006663
CU3975   CU        0.200667    0.400667    0.567333     0.006663
CU3976   CU        0.234000    0.367333    0.567333     0.006663
CU3977   CU        0.234000    0.400667    0.600667     0.006663
CU3978   CU        0.267333    0.367333    0.600667     0.006663
CU3979   CU        0.267333    0.400667    0.567333     0.006663
CU3980   CU        0.300667    0.367333    0.567333     0.006663
CU3981   CU        0.300667    0.400667    0.600667     0.006663
CU3982   CU        0.334000    0.367333    0.600667     0.006663
CU3983   CU        0.334000    0.400667    0.567333     0.006663
CU3984   CU        0.367333    0.367333    0.567333     0.006663
CU3985   CU        0.367333    0.400667    0.600667     0.006663
CU3986   CU        0.400667    0.367333    0.600667     0.006663
CU3987   CU        0.400667    0.400667    0.567333     0.006663
CU3988   CU        0.434000    0.367333    0.567333     0.006663
CU3989   CU        0.434000    0.400667    0.600667     0.006663
CU3990   CU        0.467333    0.367333    0.600667     0.006663
CU3991   CU        0.467333    0.400667    0.567333     0.006663
CU3992   CU        0.500667    0.367333    0.567333     0.006663
CU3993   CU        0.500667    0.400667    0.600667     0.006663
CU3994   CU        0.534000    0.367333    0.600667     0.006663
CU3995   CU        0.534000    0.400667    0.567333     0.006663
CU3996   CU        0.567333    0.367333    0.567333     0.006663
CU3997   CU        0.567333    0.400667    0.600667     0.006663
CU3998   CU        0.600667    0.367333    0.600667     0.006663
CU3999   CU        0.600667    0.400667    0.567333     0.006663
CU4000   CU        0.634000    0.367333    0.567333     0.006663
CU4001   CU        0.634000    0.400667    0.600667     0.006663
CU4002   CU        0.667333    0.367333    0.600667     0.006663
CU4003   CU        0.667333    0.400667    0.567333     0.006663
CU4004   CU        0.700667    0.367333    0.567333     0.006663
CU4005   CU        0.700667    0.400667    0.600667     0.006663
NI4006   NI        0.734000    0.367333    0.600667     0.004307
NI4007   NI        0.734000    0.400667    0.567333     0.004307
NI4008   NI        0.767333    0.367333    0.567333     0.004307
NI4009   NI        0.767333    0.400667    0.600667     0.004307
NI4010   NI        0.800667    0.367333    0.600667     0.004307
NI4011   NI        0.800667    0.400667    0.567333     0.004307
NI4012   NI        0.834000    0.367333    0.567333     0.004307
NI4013   NI        0.834000    0.400667    0.600667     0.004307
NI4014   NI        0.867333    0.400667    0.567333     0.004307
NI4015   NI        0.000667    0.467333    0.567333     0.004307
NI4016   NI        0.034000    0.434000    0.567333     0.004307
NI4017   NI        0.034000    0.467333    0.600667     0.004307
NI4018   NI        0.067333    0.434000    0.600667     0.004307
NI4019   NI        0.067333    0.467333    0.567333     0.004307
NI4020   NI        0.100667    0.434000    0.567333     0.004307
NI4021   NI        0.100667    0.467333    0.600667     0.004307
NI4022   NI        0.134000    0.434000    0.600667     0.004307
NI4023   NI        0.134000    0.467333    0.567333     0.004307
CU4024   CU        0.167333    0.434000    0.567333     0.006663
CU4025   CU        0.167333    0.467333    0.600667     0.006663
CU4026   CU        0.200667    0.434000    0.600667     0.006663
CU4027   CU        0.200667    0.467333    0.567333     0.006663
CU4028   CU        0.234000    0.434000    0.567333     0.006663
CU4029   CU        0.234000    0.467333    0.600667     0.006663
CU4030   CU        0.267333    0.434000    0.600667     0.006663
CU4031   CU        0.267333    0.467333    0.567333     0.006663
CU4032   CU        0.300667    0.434000    0.567333     0.006663
CU4033   CU        0.300667    0.467333    0.600667     0.006663
CU4034   CU        0.334000    0.434000    0.600667     0.006663
CU4035   CU        0.334000    0.467333    0.567333     0.006663
CU4036   CU        0.367333    0.434000    0.567333     0.006663
CU4037   CU        0.367333    0.467333    0.600667     0.006663
CU4038   CU        0.400667    0.434000    0.600667     0.006663
CU4039   CU        0.400667    0.467333    0.567333     0.006663
CU4040   CU        0.434000    0.434000    0.567333     0.006663
CU4041   CU        0.434000    0.467333    0.600667     0.006663
CU4042   CU        0.467333    0.434000    0.600667     0.006663
CU4043   CU        0.467333    0.467333    0.567333     0.006663
CU4044   CU        0.500667    0.434000    0.567333     0.006663
CU4045   CU        0.500667    0.467333    0.600667     0.006663
CU4046   CU        0.534000    0.434000    0.600667     0.006663
CU4047   CU        0.534000    0.467333    0.567333     0.006663
CU4048   CU        0.567333    0.434000    0.567333     0.006663
CU4049   CU        0.567333    0.467333    0.600667     0.006663
CU4050   CU        0.600667    0.434000    0.600667     0.006663
CU4051   CU        0.600667    0.467333    0.567333     0.006663
CU4052   CU        0.634000    0.434000    0.567333     0.006663
CU4053   CU        0.634000    0.467333    0.600667     0.006663
CU4054   CU        0.667333    0.434000    0.600667     0.006663
CU4055   CU        0.667333    0.467333    0.567333     0.006663
CU4056   CU        0.700667    0.434000    0.567333     0.006663
CU4057   CU        0.700667    0.467333    0.600667     0.006663
NI4058   NI        0.734000    0.434000    0.600667     0.004307
NI4059   NI        0.734000    0.467333    0.567333     0.004307
NI4060   NI        0.767333    0.434000    0.567333     0.004307
NI4061   NI        0.767333    0.467333    0.600667     0.004307
NI4062   NI        0.800667    0.434000    0.600667     0.004307
NI4063   NI        0.800667    0.467333    0.567333     0.004307
NI4064   NI        0.834000    0.434000    0.567333     0.004307
NI4065   NI        0.834000    0.467333    0.600667     0.004307
NI4066   NI        0.867333    0.467333    0.567333     0.004307
NI4067   NI        0.034000    0.500667    0.567333     0.004307
NI4068   NI        0.034000    0.534000    0.600667     0.004307
NI4069   NI        0.067333    0.500667    0.600667     0.004307
NI4070   NI        0.067333    0.534000    0.567333     0.004307
NI4071   NI        0.100667    0.500667    0.567333     0.004307
NI4072   NI        0.100667    0.534000    0.600667     0.004307
NI4073   NI        0.134000    0.500667    0.600667     0.004307
NI4074   NI        0.134000    0.534000    0.567333     0.004307
CU4075   CU        0.167333    0.500667    0.567333     0.006663
NI4076   NI        0.167333    0.534000    0.600667     0.004307
CU4077   CU        0.200667    0.500667    0.600667     0.006663
CU4078   CU        0.200667    0.534000    0.567333     0.006663
CU4079   CU        0.234000    0.500667    0.567333     0.006663
CU4080   CU        0.234000    0.534000    0.600667     0.006663
CU4081   CU        0.267333    0.500667    0.600667     0.006663
CU4082   CU        0.267333    0.534000    0.567333     0.006663
CU4083   CU        0.300667    0.500667    0.567333     0.006663
CU4084   CU        0.300667    0.534000    0.600667     0.006663
CU4085   CU        0.334000    0.500667    0.600667     0.006663
CU4086   CU        0.334000    0.534000    0.567333     0.006663
CU4087   CU        0.367333    0.500667    0.567333     0.006663
CU4088   CU        0.367333    0.534000    0.600667     0.006663
CU4089   CU        0.400667    0.500667    0.600667     0.006663
CU4090   CU        0.400667    0.534000    0.567333     0.006663
CU4091   CU        0.434000    0.500667    0.567333     0.006663
CU4092   CU        0.434000    0.534000    0.600667     0.006663
CU4093   CU        0.467333    0.500667    0.600667     0.006663
CU4094   CU        0.467333    0.534000    0.567333     0.006663
CU4095   CU        0.500667    0.500667    0.567333     0.006663
CU4096   CU        0.500667    0.534000    0.600667     0.006663
CU4097   CU        0.534000    0.500667    0.600667     0.006663
CU4098   CU        0.534000    0.534000    0.567333     0.006663
CU4099   CU        0.567333    0.500667    0.567333     0.006663
CU4100   CU        0.567333    0.534000    0.600667     0.006663
CU4101   CU        0.600667    0.500667    0.600667     0.006663
CU4102   CU        0.600667    0.534000    0.567333     0.006663
CU4103   CU        0.634000    0.500667    0.567333     0.006663
CU4104   CU        0.634000    0.534000    0.600667     0.006663
CU4105   CU        0.667333    0.500667    0.600667     0.006663
CU4106   CU        0.667333    0.534000    0.567333     0.006663
CU4107   CU        0.700667    0.500667    0.567333     0.006663
NI4108   NI        0.700667    0.534000    0.600667     0.004307
NI4109   NI        0.734000    0.500667    0.600667     0.004307
NI4110   NI        0.734000    0.534000    0.567333     0.004307
NI4111   NI        0.767333    0.500667    0.567333     0.004307
NI4112   NI        0.767333    0.534000    0.600667     0.004307
NI4113   NI        0.800667    0.500667    0.600667     0.004307
NI4114   NI        0.800667    0.534000    0.567333     0.004307
NI4115   NI        0.834000    0.500667    0.567333     0.004307
NI4116   NI        0.834000    0.534000    0.600667     0.004307
NI4117   NI        0.034000    0.567333    0.567333     0.004307
NI4118   NI        0.067333    0.567333    0.600667     0.004307
NI4119   NI        0.067333    0.600667    0.567333     0.004307
NI4120   NI        0.100667    0.567333    0.567333     0.004307
NI4121   NI        0.100667    0.600667    0.600667     0.004307
NI4122   NI        0.134000    0.567333    0.600667     0.004307
NI4123   NI        0.134000    0.600667    0.567333     0.004307
NI4124   NI        0.167333    0.567333    0.567333     0.004307
NI4125   NI        0.167333    0.600667    0.600667     0.004307
CU4126   CU        0.200667    0.567333    0.600667     0.006663
CU4127   CU        0.200667    0.600667    0.567333     0.006663
CU4128   CU        0.234000    0.567333    0.567333     0.006663
CU4129   CU        0.234000    0.600667    0.600667     0.006663
CU4130   CU        0.267333    0.567333    0.600667     0.006663
CU4131   CU        0.267333    0.600667    0.567333     0.006663
CU4132   CU        0.300667    0.567333    0.567333     0.006663
CU4133   CU        0.300667    0.600667    0.600667     0.006663
CU4134   CU        0.334000    0.567333    0.600667     0.006663
CU4135   CU        0.334000    0.600667    0.567333     0.006663
CU4136   CU        0.367333    0.567333    0.567333     0.006663
CU4137   CU        0.367333    0.600667    0.600667     0.006663
CU4138   CU        0.400667    0.567333    0.600667     0.006663
CU4139   CU        0.400667    0.600667    0.567333     0.006663
CU4140   CU        0.434000    0.567333    0.567333     0.006663
CU4141   CU        0.434000    0.600667    0.600667     0.006663
CU4142   CU        0.467333    0.567333    0.600667     0.006663
CU4143   CU        0.467333    0.600667    0.567333     0.006663
CU4144   CU        0.500667    0.567333    0.567333     0.006663
CU4145   CU        0.500667    0.600667    0.600667     0.006663
CU4146   CU        0.534000    0.567333    0.600667     0.006663
CU4147   CU        0.534000    0.600667    0.567333     0.006663
CU4148   CU        0.567333    0.567333    0.567333     0.006663
CU4149   CU        0.567333    0.600667    0.600667     0.006663
CU4150   CU        0.600667    0.567333    0.600667     0.006663
CU4151   CU        0.600667    0.600667    0.567333     0.006663
CU4152   CU        0.634000    0.567333    0.567333     0.006663
CU4153   CU        0.634000    0.600667    0.600667     0.006663
CU4154   CU        0.667333    0.567333    0.600667     0.006663
CU4155   CU        0.667333    0.600667    0.567333     0.006663
NI4156   NI        0.700667    0.567333    0.567333     0.004307
NI4157   NI        0.700667    0.600667    0.600667     0.004307
NI4158   NI        0.734000    0.567333    0.600667     0.004307
NI4159   NI        0.734000    0.600667    0.567333     0.004307
NI4160   NI        0.767333    0.567333    0.567333     0.004307
NI4161   NI        0.767333    0.600667    0.600667     0.004307
NI4162   NI        0.800667    0.567333    0.600667     0.004307
NI4163   NI        0.800667    0.600667    0.567333     0.004307
NI4164   NI        0.834000    0.567333    0.567333     0.004307
NI4165   NI        0.067333    0.634000    0.600667     0.004307
NI4166   NI        0.067333    0.667333    0.567333     0.004307
NI4167   NI        0.100667    0.634000    0.567333     0.004307
NI4168   NI        0.100667    0.667333    0.600667     0.004307
NI4169   NI        0.134000    0.634000    0.600667     0.004307
NI4170   NI        0.134000    0.667333    0.567333     0.004307
NI4171   NI        0.167333    0.634000    0.567333     0.004307
NI4172   NI        0.167333    0.667333    0.600667     0.004307
NI4173   NI        0.200667    0.634000    0.600667     0.004307
NI4174   NI        0.200667    0.667333    0.567333     0.004307
CU4175   CU        0.234000    0.634000    0.567333     0.006663
NI4176   NI        0.234000    0.667333    0.600667     0.004307
CU4177   CU        0.267333    0.634000    0.600667     0.006663
CU4178   CU        0.267333    0.667333    0.567333     0.006663
CU4179   CU        0.300667    0.634000    0.567333     0.006663
CU4180   CU        0.300667    0.667333    0.600667     0.006663
CU4181   CU        0.334000    0.634000    0.600667     0.006663
CU4182   CU        0.334000    0.667333    0.567333     0.006663
CU4183   CU        0.367333    0.634000    0.567333     0.006663
CU4184   CU        0.367333    0.667333    0.600667     0.006663
CU4185   CU        0.400667    0.634000    0.600667     0.006663
CU4186   CU        0.400667    0.667333    0.567333     0.006663
CU4187   CU        0.434000    0.634000    0.567333     0.006663
CU4188   CU        0.434000    0.667333    0.600667     0.006663
CU4189   CU        0.467333    0.634000    0.600667     0.006663
CU4190   CU        0.467333    0.667333    0.567333     0.006663
CU4191   CU        0.500667    0.634000    0.567333     0.006663
CU4192   CU        0.500667    0.667333    0.600667     0.006663
CU4193   CU        0.534000    0.634000    0.600667     0.006663
CU4194   CU        0.534000    0.667333    0.567333     0.006663
CU4195   CU        0.567333    0.634000    0.567333     0.006663
CU4196   CU        0.567333    0.667333    0.600667     0.006663
CU4197   CU        0.600667    0.634000    0.600667     0.006663
CU4198   CU        0.600667    0.667333    0.567333     0.006663
CU4199   CU        0.634000    0.634000    0.567333     0.006663
NI4200   NI        0.634000    0.667333    0.600667     0.004307
NI4201   NI        0.667333    0.634000    0.600667     0.004307
NI4202   NI        0.667333    0.667333    0.567333     0.004307
NI4203   NI        0.700667    0.634000    0.567333     0.004307
NI4204   NI        0.700667    0.667333    0.600667     0.004307
NI4205   NI        0.734000    0.634000    0.600667     0.004307
NI4206   NI        0.734000    0.667333    0.567333     0.004307
NI4207   NI        0.767333    0.634000    0.567333     0.004307
NI4208   NI        0.767333    0.667333    0.600667     0.004307
NI4209   NI        0.800667    0.634000    0.600667     0.004307
NI4210   NI        0.800667    0.667333    0.567333     0.004307
NI4211   NI        0.100667    0.700667    0.567333     0.004307
NI4212   NI        0.134000    0.700667    0.600667     0.004307
NI4213   NI        0.134000    0.734000    0.567333     0.004307
NI4214   NI        0.167333    0.700667    0.567333     0.004307
NI4215   NI        0.167333    0.734000    0.600667     0.004307
NI4216   NI        0.200667    0.700667    0.600667     0.004307
NI4217   NI        0.200667    0.734000    0.567333     0.004307
NI4218   NI        0.234000    0.700667    0.567333     0.004307
NI4219   NI        0.234000    0.734000    0.600667     0.004307
NI4220   NI        0.267333    0.700667    0.600667     0.004307
NI4221   NI        0.267333    0.734000    0.567333     0.004307
NI4222   NI        0.300667    0.700667    0.567333     0.004307
NI4223   NI        0.300667    0.734000    0.600667     0.004307
NI4224   NI        0.334000    0.700667    0.600667     0.004307
NI4225   NI        0.334000    0.734000    0.567333     0.004307
CU4226   CU        0.367333    0.700667    0.567333     0.006663
NI4227   NI        0.367333    0.734000    0.600667     0.004307
CU4228   CU        0.400667    0.700667    0.600667     0.006663
NI4229   NI        0.400667    0.734000    0.567333     0.004307
CU4230   CU        0.434000    0.700667    0.567333     0.006663
NI4231   NI        0.434000    0.734000    0.600667     0.004307
CU4232   CU        0.467333    0.700667    0.600667     0.006663
NI4233   NI        0.467333    0.734000    0.567333     0.004307
CU4234   CU        0.500667    0.700667    0.567333     0.006663
NI4235   NI        0.500667    0.734000    0.600667     0.004307
NI4236   NI        0.534000    0.700667    0.600667     0.004307
NI4237   NI        0.534000    0.734000    0.567333     0.004307
NI4238   NI        0.567333    0.700667    0.567333     0.004307
NI4239   NI        0.567333    0.734000    0.600667     0.004307
NI4240   NI        0.600667    0.700667    0.600667     0.004307
NI4241   NI        0.600667    0.734000    0.567333     0.004307
NI4242   NI        0.634000    0.700667    0.567333     0.004307
NI4243   NI        0.634000    0.734000    0.600667     0.004307
NI4244   NI        0.667333    0.700667    0.600667     0.004307
NI4245   NI        0.667333    0.734000    0.567333     0.004307
NI4246   NI        0.700667    0.700667    0.567333     0.004307
NI4247   NI        0.700667    0.734000    0.600667     0.004307
NI4248   NI        0.734000    0.700667    0.600667     0.004307
NI4249   NI        0.734000    0.734000    0.567333     0.004307
NI4250   NI        0.767333    0.700667    0.567333     0.004307
NI4251   NI        0.167333    0.767333    0.567333     0.004307
NI4252   NI        0.200667    0.767333    0.600667     0.004307
NI4253   NI        0.200667    0.800667    0.567333     0.004307
NI4254   NI        0.234000    0.767333    0.567333     0.004307
NI4255   NI        0.234000    0.800667    0.600667     0.004307
NI4256   NI        0.267333    0.767333    0.600667     0.004307
NI4257   NI        0.267333    0.800667    0.567333     0.004307
NI4258   NI        0.300667    0.767333    0.567333     0.004307
NI4259   NI        0.300667    0.800667    0.600667     0.004307
NI4260   NI        0.334000    0.767333    0.600667     0.004307
NI4261   NI        0.334000    0.800667    0.567333     0.004307
NI4262   NI        0.367333    0.767333    0.567333     0.004307
NI4263   NI        0.367333    0.800667    0.600667     0.004307
NI4264   NI        0.400667    0.767333    0.600667     0.004307
NI4265   NI        0.400667    0.800667    0.567333     0.004307
NI4266   NI        0.434000    0.767333    0.567333     0.004307
NI4267   NI        0.434000    0.800667    0.600667     0.004307
NI4268   NI        0.467333    0.767333    0.600667     0.004307
NI4269   NI        0.467333    0.800667    0.567333     0.004307
NI4270   NI        0.500667    0.767333    0.567333     0.004307
NI4271   NI        0.500667    0.800667    0.600667     0.004307
NI4272   NI        0.534000    0.767333    0.600667     0.004307
NI4273   NI        0.534000    0.800667    0.567333     0.004307
NI4274   NI        0.567333    0.767333    0.567333     0.004307
NI4275   NI        0.567333    0.800667    0.600667     0.004307
NI4276   NI        0.600667    0.767333    0.600667     0.004307
NI4277   NI        0.600667    0.800667    0.567333     0.004307
NI4278   NI        0.634000    0.767333    0.567333     0.004307
NI4279   NI        0.634000    0.800667    0.600667     0.004307
NI4280   NI        0.667333    0.767333    0.600667     0.004307
NI4281   NI        0.667333    0.800667    0.567333     0.004307
NI4282   NI        0.700667    0.767333    0.567333     0.004307
NI4283   NI        0.300667    0.834000    0.567333     0.004307
NI4284   NI        0.334000    0.834000    0.600667     0.004307
NI4285   NI        0.367333    0.834000    0.567333     0.004307
NI4286   NI        0.400667    0.834000    0.600667     0.004307
NI4287   NI        0.400667    0.867333    0.567333     0.004307
NI4288   NI        0.434000    0.834000    0.567333     0.004307
NI4289   NI        0.467333    0.834000    0.600667     0.004307
NI4290   NI        0.467333    0.867333    0.567333     0.004307
NI4291   NI        0.500667    0.834000    0.567333     0.004307
NI4292   NI        0.534000    0.834000    0.600667     0.004307
NI4293   NI        0.567333    0.834000    0.567333     0.004307
NI4294   NI        0.267333    0.067333    0.634000     0.004307
NI4295   NI        0.300667    0.067333    0.667333     0.004307
NI4296   NI        0.334000    0.067333    0.634000     0.004307
NI4297   NI        0.367333    0.034000    0.634000     0.004307
NI4298   NI        0.367333    0.067333    0.667333     0.004307
NI4299   NI        0.400667    0.067333    0.634000     0.004307
NI4300   NI        0.434000    0.034000    0.634000     0.004307
NI4301   NI        0.434000    0.067333    0.667333     0.004307
NI4302   NI        0.467333    0.067333    0.634000     0.004307
NI4303   NI        0.500667    0.034000    0.634000     0.004307
NI4304   NI        0.500667    0.067333    0.667333     0.004307
NI4305   NI        0.534000    0.067333    0.634000     0.004307
NI4306   NI        0.567333    0.067333    0.667333     0.004307
NI4307   NI        0.600667    0.067333    0.634000     0.004307
NI4308   NI        0.200667    0.134000    0.634000     0.004307
NI4309   NI        0.234000    0.100667    0.634000     0.004307
NI4310   NI        0.234000    0.134000    0.667333     0.004307
NI4311   NI        0.267333    0.100667    0.667333     0.004307
NI4312   NI        0.267333    0.134000    0.634000     0.004307
NI4313   NI        0.300667    0.100667    0.634000     0.004307
NI4314   NI        0.300667    0.134000    0.667333     0.004307
NI4315   NI        0.334000    0.100667    0.667333     0.004307
NI4316   NI        0.334000    0.134000    0.634000     0.004307
NI4317   NI        0.367333    0.100667    0.634000     0.004307
NI4318   NI        0.367333    0.134000    0.667333     0.004307
NI4319   NI        0.400667    0.100667    0.667333     0.004307
NI4320   NI        0.400667    0.134000    0.634000     0.004307
NI4321   NI        0.434000    0.100667    0.634000     0.004307
NI4322   NI        0.434000    0.134000    0.667333     0.004307
NI4323   NI        0.467333    0.100667    0.667333     0.004307
NI4324   NI        0.467333    0.134000    0.634000     0.004307
NI4325   NI        0.500667    0.100667    0.634000     0.004307
NI4326   NI        0.500667    0.134000    0.667333     0.004307
NI4327   NI        0.534000    0.100667    0.667333     0.004307
NI4328   NI        0.534000    0.134000    0.634000     0.004307
NI4329   NI        0.567333    0.100667    0.634000     0.004307
NI4330   NI        0.567333    0.134000    0.667333     0.004307
NI4331   NI        0.600667    0.100667    0.667333     0.004307
NI4332   NI        0.600667    0.134000    0.634000     0.004307
NI4333   NI        0.634000    0.100667    0.634000     0.004307
NI4334   NI        0.634000    0.134000    0.667333     0.004307
NI4335   NI        0.667333    0.134000    0.634000     0.004307
NI4336   NI        0.134000    0.200667    0.634000     0.004307
NI4337   NI        0.167333    0.167333    0.634000     0.004307
NI4338   NI        0.167333    0.200667    0.667333     0.004307
NI4339   NI        0.200667    0.167333    0.667333     0.004307
NI4340   NI        0.200667    0.200667    0.634000     0.004307
NI4341   NI        0.234000    0.167333    0.634000     0.004307
NI4342   NI        0.234000    0.200667    0.667333     0.004307
NI4343   NI        0.267333    0.167333    0.667333     0.004307
NI4344   NI        0.267333    0.200667    0.634000     0.004307
NI4345   NI        0.300667    0.167333    0.634000     0.004307
NI4346   NI        0.300667    0.200667    0.667333     0.004307
NI4347   NI        0.334000    0.167333    0.667333     0.004307
NI4348   NI        0.334000    0.200667    0.634000     0.004307
NI4349   NI        0.367333    0.167333    0.634000     0.004307
NI4350   NI        0.367333    0.200667    0.667333     0.004307
NI4351   NI        0.400667    0.167333    0.667333     0.004307
CU4352   CU        0.400667    0.200667    0.634000     0.006663
NI4353   NI        0.434000    0.167333    0.634000     0.004307
NI4354   NI        0.434000    0.200667    0.667333     0.004307
NI4355   NI        0.467333    0.167333    0.667333     0.004307
CU4356   CU        0.467333    0.200667    0.634000     0.006663
NI4357   NI        0.500667    0.167333    0.634000     0.004307
NI4358   NI        0.500667    0.200667    0.667333     0.004307
NI4359   NI        0.534000    0.167333    0.667333     0.004307
NI4360   NI        0.534000    0.200667    0.634000     0.004307
NI4361   NI        0.567333    0.167333    0.634000     0.004307
NI4362   NI        0.567333    0.200667    0.667333     0.004307
NI4363   NI        0.600667    0.167333    0.667333     0.004307
NI4364   NI        0.600667    0.200667    0.634000     0.004307
NI4365   NI        0.634000    0.167333    0.634000     0.004307
NI4366   NI        0.634000    0.200667    0.667333     0.004307
NI4367   NI        0.667333    0.167333    0.667333     0.004307
NI4368   NI        0.667333    0.200667    0.634000     0.004307
NI4369   NI        0.700667    0.167333    0.634000     0.004307
NI4370   NI        0.700667    0.200667    0.667333     0.004307
NI4371   NI        0.734000    0.200667    0.634000     0.004307
NI4372   NI        0.067333    0.267333    0.634000     0.004307
NI4373   NI        0.100667    0.234000    0.634000     0.004307
NI4374   NI        0.100667    0.267333    0.667333     0.004307
NI4375   NI        0.134000    0.234000    0.667333     0.004307
NI4376   NI        0.134000    0.267333    0.634000     0.004307
NI4377   NI        0.167333    0.234000    0.634000     0.004307
NI4378   NI        0.167333    0.267333    0.667333     0.004307
NI4379   NI        0.200667    0.234000    0.667333     0.004307
NI4380   NI        0.200667    0.267333    0.634000     0.004307
NI4381   NI        0.234000    0.234000    0.634000     0.004307
NI4382   NI        0.234000    0.267333    0.667333     0.004307
NI4383   NI        0.267333    0.234000    0.667333     0.004307
CU4384   CU        0.267333    0.267333    0.634000     0.006663
CU4385   CU        0.300667    0.234000    0.634000     0.006663
CU4386   CU        0.300667    0.267333    0.667333     0.006663
NI4387   NI        0.334000    0.234000    0.667333     0.004307
CU4388   CU        0.334000    0.267333    0.634000     0.006663
CU4389   CU        0.367333    0.234000    0.634000     0.006663
CU4390   CU        0.367333    0.267333    0.667333     0.006663
CU4391   CU        0.400667    0.234000    0.667333     0.006663
CU4392   CU        0.400667    0.267333    0.634000     0.006663
CU4393   CU        0.434000    0.234000    0.634000     0.006663
CU4394   CU        0.434000    0.267333    0.667333     0.006663
CU4395   CU        0.467333    0.234000    0.667333     0.006663
CU4396   CU        0.467333    0.267333    0.634000     0.006663
CU4397   CU        0.500667    0.234000    0.634000     0.006663
CU4398   CU        0.500667    0.267333    0.667333     0.006663
NI4399   NI        0.534000    0.234000    0.667333     0.004307
CU4400   CU        0.534000    0.267333    0.634000     0.006663
CU4401   CU        0.567333    0.234000    0.634000     0.006663
CU4402   CU        0.567333    0.267333    0.667333     0.006663
NI4403   NI        0.600667    0.234000    0.667333     0.004307
CU4404   CU        0.600667    0.267333    0.634000     0.006663
NI4405   NI        0.634000    0.234000    0.634000     0.004307
NI4406   NI        0.634000    0.267333    0.667333     0.004307
NI4407   NI        0.667333    0.234000    0.667333     0.004307
NI4408   NI        0.667333    0.267333    0.634000     0.004307
NI4409   NI        0.700667    0.234000    0.634000     0.004307
NI4410   NI        0.700667    0.267333    0.667333     0.004307
NI4411   NI        0.734000    0.234000    0.667333     0.004307
NI4412   NI        0.734000    0.267333    0.634000     0.004307
NI4413   NI        0.767333    0.234000    0.634000     0.004307
NI4414   NI        0.767333    0.267333    0.667333     0.004307
NI4415   NI        0.800667    0.267333    0.634000     0.004307
NI4416   NI        0.067333    0.300667    0.667333     0.004307
NI4417   NI        0.067333    0.334000    0.634000     0.004307
NI4418   NI        0.100667    0.300667    0.634000     0.004307
NI4419   NI        0.100667    0.334000    0.667333     0.004307
NI4420   NI        0.134000    0.300667    0.667333     0.004307
NI4421   NI        0.134000    0.334000    0.634000     0.004307
NI4422   NI        0.167333    0.300667    0.634000     0.004307
NI4423   NI        0.167333    0.334000    0.667333     0.004307
NI4424   NI        0.200667    0.300667    0.667333     0.004307
NI4425   NI        0.200667    0.334000    0.634000     0.004307
CU4426   CU        0.234000    0.300667    0.634000     0.006663
NI4427   NI        0.234000    0.334000    0.667333     0.004307
CU4428   CU        0.267333    0.300667    0.667333     0.006663
CU4429   CU        0.267333    0.334000    0.634000     0.006663
CU4430   CU        0.300667    0.300667    0.634000     0.006663
CU4431   CU        0.300667    0.334000    0.667333     0.006663
CU4432   CU        0.334000    0.300667    0.667333     0.006663
CU4433   CU        0.334000    0.334000    0.634000     0.006663
CU4434   CU        0.367333    0.300667    0.634000     0.006663
CU4435   CU        0.367333    0.334000    0.667333     0.006663
CU4436   CU        0.400667    0.300667    0.667333     0.006663
CU4437   CU        0.400667    0.334000    0.634000     0.006663
CU4438   CU        0.434000    0.300667    0.634000     0.006663
CU4439   CU        0.434000    0.334000    0.667333     0.006663
CU4440   CU        0.467333    0.300667    0.667333     0.006663
CU4441   CU        0.467333    0.334000    0.634000     0.006663
CU4442   CU        0.500667    0.300667    0.634000     0.006663
CU4443   CU        0.500667    0.334000    0.667333     0.006663
CU4444   CU        0.534000    0.300667    0.667333     0.006663
CU4445   CU        0.534000    0.334000    0.634000     0.006663
CU4446   CU        0.567333    0.300667    0.634000     0.006663
CU4447   CU        0.567333    0.334000    0.667333     0.006663
CU4448   CU        0.600667    0.300667    0.667333     0.006663
CU4449   CU        0.600667    0.334000    0.634000     0.006663
CU4450   CU        0.634000    0.300667    0.634000     0.006663
NI4451   NI        0.634000    0.334000    0.667333     0.004307
NI4452   NI        0.667333    0.300667    0.667333     0.004307
NI4453   NI        0.667333    0.334000    0.634000     0.004307
NI4454   NI        0.700667    0.300667    0.634000     0.004307
NI4455   NI        0.700667    0.334000    0.667333     0.004307
NI4456   NI        0.734000    0.300667    0.667333     0.004307
NI4457   NI        0.734000    0.334000    0.634000     0.004307
NI4458   NI        0.767333    0.300667    0.634000     0.004307
NI4459   NI        0.767333    0.334000    0.667333     0.004307
NI4460   NI        0.800667    0.300667    0.667333     0.004307
NI4461   NI        0.800667    0.334000    0.634000     0.004307
NI4462   NI        0.034000    0.367333    0.634000     0.004307
NI4463   NI        0.067333    0.367333    0.667333     0.004307
NI4464   NI        0.067333    0.400667    0.634000     0.004307
NI4465   NI        0.100667    0.367333    0.634000     0.004307
NI4466   NI        0.100667    0.400667    0.667333     0.004307
NI4467   NI        0.134000    0.367333    0.667333     0.004307
NI4468   NI        0.134000    0.400667    0.634000     0.004307
NI4469   NI        0.167333    0.367333    0.634000     0.004307
NI4470   NI        0.167333    0.400667    0.667333     0.004307
NI4471   NI        0.200667    0.367333    0.667333     0.004307
CU4472   CU        0.200667    0.400667    0.634000     0.006663
CU4473   CU        0.234000    0.367333    0.634000     0.006663
CU4474   CU        0.234000    0.400667    0.667333     0.006663
CU4475   CU        0.267333    0.367333    0.667333     0.006663
CU4476   CU        0.267333    0.400667    0.634000     0.006663
CU4477   CU        0.300667    0.367333    0.634000     0.006663
CU4478   CU        0.300667    0.400667    0.667333     0.006663
CU4479   CU        0.334000    0.367333    0.667333     0.006663
CU4480   CU        0.334000    0.400667    0.634000     0.006663
CU4481   CU        0.367333    0.367333    0.634000     0.006663
CU4482   CU        0.367333    0.400667    0.667333     0.006663
CU4483   CU        0.400667    0.367333    0.667333     0.006663
CU4484   CU        0.400667    0.400667    0.634000     0.006663
CU4485   CU        0.434000    0.367333    0.634000     0.006663
CU4486   CU        0.434000    0.400667    0.667333     0.006663
CU4487   CU        0.467333    0.367333    0.667333     0.006663
CU4488   CU        0.467333    0.400667    0.634000     0.006663
CU4489   CU        0.500667    0.367333    0.634000     0.006663
CU4490   CU        0.500667    0.400667    0.667333     0.006663
CU4491   CU        0.534000    0.367333    0.667333     0.006663
CU4492   CU        0.534000    0.400667    0.634000     0.006663
CU4493   CU        0.567333    0.367333    0.634000     0.006663
CU4494   CU        0.567333    0.400667    0.667333     0.006663
CU4495   CU        0.600667    0.367333    0.667333     0.006663
CU4496   CU        0.600667    0.400667    0.634000     0.006663
CU4497   CU        0.634000    0.367333    0.634000     0.006663
CU4498   CU        0.634000    0.400667    0.667333     0.006663
NI4499   NI        0.667333    0.367333    0.667333     0.004307
CU4500   CU        0.667333    0.400667    0.634000     0.006663
NI4501   NI        0.700667    0.367333    0.634000     0.004307
NI4502   NI        0.700667    0.400667    0.667333     0.004307
NI4503   NI        0.734000    0.367333    0.667333     0.004307
NI4504   NI        0.734000    0.400667    0.634000     0.004307
NI4505   NI        0.767333    0.367333    0.634000     0.004307
NI4506   NI        0.767333    0.400667    0.667333     0.004307
NI4507   NI        0.800667    0.367333    0.667333     0.004307
NI4508   NI        0.800667    0.400667    0.634000     0.004307
NI4509   NI        0.834000    0.367333    0.634000     0.004307
NI4510   NI        0.034000    0.434000    0.634000     0.004307
NI4511   NI        0.067333    0.434000    0.667333     0.004307
NI4512   NI        0.067333    0.467333    0.634000     0.004307
NI4513   NI        0.100667    0.434000    0.634000     0.004307
NI4514   NI        0.100667    0.467333    0.667333     0.004307
NI4515   NI        0.134000    0.434000    0.667333     0.004307
NI4516   NI        0.134000    0.467333    0.634000     0.004307
NI4517   NI        0.167333    0.434000    0.634000     0.004307
NI4518   NI        0.167333    0.467333    0.667333     0.004307
NI4519   NI        0.200667    0.434000    0.667333     0.004307
CU4520   CU        0.200667    0.467333    0.634000     0.006663
CU4521   CU        0.234000    0.434000    0.634000     0.006663
CU4522   CU        0.234000    0.467333    0.667333     0.006663
CU4523   CU        0.267333    0.434000    0.667333     0.006663
CU4524   CU        0.267333    0.467333    0.634000     0.006663
CU4525   CU        0.300667    0.434000    0.634000     0.006663
CU4526   CU        0.300667    0.467333    0.667333     0.006663
CU4527   CU        0.334000    0.434000    0.667333     0.006663
CU4528   CU        0.334000    0.467333    0.634000     0.006663
CU4529   CU        0.367333    0.434000    0.634000     0.006663
CU4530   CU        0.367333    0.467333    0.667333     0.006663
CU4531   CU        0.400667    0.434000    0.667333     0.006663
CU4532   CU        0.400667    0.467333    0.634000     0.006663
CU4533   CU        0.434000    0.434000    0.634000     0.006663
CU4534   CU        0.434000    0.467333    0.667333     0.006663
CU4535   CU        0.467333    0.434000    0.667333     0.006663
CU4536   CU        0.467333    0.467333    0.634000     0.006663
CU4537   CU        0.500667    0.434000    0.634000     0.006663
CU4538   CU        0.500667    0.467333    0.667333     0.006663
CU4539   CU        0.534000    0.434000    0.667333     0.006663
CU4540   CU        0.534000    0.467333    0.634000     0.006663
CU4541   CU        0.567333    0.434000    0.634000     0.006663
CU4542   CU        0.567333    0.467333    0.667333     0.006663
CU4543   CU        0.600667    0.434000    0.667333     0.006663
CU4544   CU        0.600667    0.467333    0.634000     0.006663
CU4545   CU        0.634000    0.434000    0.634000     0.006663
CU4546   CU        0.634000    0.467333    0.667333     0.006663
NI4547   NI        0.667333    0.434000    0.667333     0.004307
CU4548   CU        0.667333    0.467333    0.634000     0.006663
NI4549   NI        0.700667    0.434000    0.634000     0.004307
NI4550   NI        0.700667    0.467333    0.667333     0.004307
NI4551   NI        0.734000    0.434000    0.667333     0.004307
NI4552   NI        0.734000    0.467333    0.634000     0.004307
NI4553   NI        0.767333    0.434000    0.634000     0.004307
NI4554   NI        0.767333    0.467333    0.667333     0.004307
NI4555   NI        0.800667    0.434000    0.667333     0.004307
NI4556   NI        0.800667    0.467333    0.634000     0.004307
NI4557   NI        0.834000    0.434000    0.634000     0.004307
NI4558   NI        0.034000    0.500667    0.634000     0.004307
NI4559   NI        0.067333    0.500667    0.667333     0.004307
NI4560   NI        0.067333    0.534000    0.634000     0.004307
NI4561   NI        0.100667    0.500667    0.634000     0.004307
NI4562   NI        0.100667    0.534000    0.667333     0.004307
NI4563   NI        0.134000    0.500667    0.667333     0.004307
NI4564   NI        0.134000    0.534000    0.634000     0.004307
NI4565   NI        0.167333    0.500667    0.634000     0.004307
NI4566   NI        0.167333    0.534000    0.667333     0.004307
NI4567   NI        0.200667    0.500667    0.667333     0.004307
NI4568   NI        0.200667    0.534000    0.634000     0.004307
CU4569   CU        0.234000    0.500667    0.634000     0.006663
NI4570   NI        0.234000    0.534000    0.667333     0.004307
CU4571   CU        0.267333    0.500667    0.667333     0.006663
CU4572   CU        0.267333    0.534000    0.634000     0.006663
CU4573   CU        0.300667    0.500667    0.634000     0.006663
CU4574   CU        0.300667    0.534000    0.667333     0.006663
CU4575   CU        0.334000    0.500667    0.667333     0.006663
CU4576   CU        0.334000    0.534000    0.634000     0.006663
CU4577   CU        0.367333    0.500667    0.634000     0.006663
CU4578   CU        0.367333    0.534000    0.667333     0.006663
CU4579   CU        0.400667    0.500667    0.667333     0.006663
CU4580   CU        0.400667    0.534000    0.634000     0.006663
CU4581   CU        0.434000    0.500667    0.634000     0.006663
CU4582   CU        0.434000    0.534000    0.667333     0.006663
CU4583   CU        0.467333    0.500667    0.667333     0.006663
CU4584   CU        0.467333    0.534000    0.634000     0.006663
CU4585   CU        0.500667    0.500667    0.634000     0.006663
CU4586   CU        0.500667    0.534000    0.667333     0.006663
CU4587   CU        0.534000    0.500667    0.667333     0.006663
CU4588   CU        0.534000    0.534000    0.634000     0.006663
CU4589   CU        0.567333    0.500667    0.634000     0.006663
CU4590   CU        0.567333    0.534000    0.667333     0.006663
CU4591   CU        0.600667    0.500667    0.667333     0.006663
CU4592   CU        0.600667    0.534000    0.634000     0.006663
CU4593   CU        0.634000    0.500667    0.634000     0.006663
NI4594   NI        0.634000    0.534000    0.667333     0.004307
NI4595   NI        0.667333    0.500667    0.667333     0.004307
NI4596   NI        0.667333    0.534000    0.634000     0.004307
NI4597   NI        0.700667    0.500667    0.634000     0.004307
NI4598   NI        0.700667    0.534000    0.667333     0.004307
NI4599   NI        0.734000    0.500667    0.667333     0.004307
NI4600   NI        0.734000    0.534000    0.634000     0.004307
NI4601   NI        0.767333    0.500667    0.634000     0.004307
NI4602   NI        0.767333    0.534000    0.667333     0.004307
NI4603   NI        0.800667    0.500667    0.667333     0.004307
NI4604   NI        0.800667    0.534000    0.634000     0.004307
NI4605   NI        0.834000    0.500667    0.634000     0.004307
NI4606   NI        0.067333    0.567333    0.667333     0.004307
NI4607   NI        0.067333    0.600667    0.634000     0.004307
NI4608   NI        0.100667    0.567333    0.634000     0.004307
NI4609   NI        0.100667    0.600667    0.667333     0.004307
NI4610   NI        0.134000    0.567333    0.667333     0.004307
NI4611   NI        0.134000    0.600667    0.634000     0.004307
NI4612   NI        0.167333    0.567333    0.634000     0.004307
NI4613   NI        0.167333    0.600667    0.667333     0.004307
NI4614   NI        0.200667    0.567333    0.667333     0.004307
NI4615   NI        0.200667    0.600667    0.634000     0.004307
CU4616   CU        0.234000    0.567333    0.634000     0.006663
NI4617   NI        0.234000    0.600667    0.667333     0.004307
CU4618   CU        0.267333    0.567333    0.667333     0.006663
CU4619   CU        0.267333    0.600667    0.634000     0.006663
CU4620   CU        0.300667    0.567333    0.634000     0.006663
CU4621   CU        0.300667    0.600667    0.667333     0.006663
CU4622   CU        0.334000    0.567333    0.667333     0.006663
CU4623   CU        0.334000    0.600667    0.634000     0.006663
CU4624   CU        0.367333    0.567333    0.634000     0.006663
CU4625   CU        0.367333    0.600667    0.667333     0.006663
CU4626   CU        0.400667    0.567333    0.667333     0.006663
CU4627   CU        0.400667    0.600667    0.634000     0.006663
CU4628   CU        0.434000    0.567333    0.634000     0.006663
CU4629   CU        0.434000    0.600667    0.667333     0.006663
CU4630   CU        0.467333    0.567333    0.667333     0.006663
CU4631   CU        0.467333    0.600667    0.634000     0.006663
CU4632   CU        0.500667    0.567333    0.634000     0.006663
CU4633   CU        0.500667    0.600667    0.667333     0.006663
CU4634   CU        0.534000    0.567333    0.667333     0.006663
CU4635   CU        0.534000    0.600667    0.634000     0.006663
CU4636   CU        0.567333    0.567333    0.634000     0.006663
CU4637   CU        0.567333    0.600667    0.667333     0.006663
CU4638   CU        0.600667    0.567333    0.667333     0.006663
CU4639   CU        0.600667    0.600667    0.634000     0.006663
CU4640   CU        0.634000    0.567333    0.634000     0.006663
NI4641   NI        0.634000    0.600667    0.667333     0.004307
NI4642   NI        0.667333    0.567333    0.667333     0.004307
NI4643   NI        0.667333    0.600667    0.634000     0.004307
NI4644   NI        0.700667    0.567333    0.634000     0.004307
NI4645   NI        0.700667    0.600667    0.667333     0.004307
NI4646   NI        0.734000    0.567333    0.667333     0.004307
NI4647   NI        0.734000    0.600667    0.634000     0.004307
NI4648   NI        0.767333    0.567333    0.634000     0.004307
NI4649   NI        0.767333    0.600667    0.667333     0.004307
NI4650   NI        0.800667    0.567333    0.667333     0.004307
NI4651   NI        0.800667    0.600667    0.634000     0.004307
NI4652   NI        0.100667    0.634000    0.634000     0.004307
NI4653   NI        0.134000    0.634000    0.667333     0.004307
NI4654   NI        0.134000    0.667333    0.634000     0.004307
NI4655   NI        0.167333    0.634000    0.634000     0.004307
NI4656   NI        0.167333    0.667333    0.667333     0.004307
NI4657   NI        0.200667    0.634000    0.667333     0.004307
NI4658   NI        0.200667    0.667333    0.634000     0.004307
NI4659   NI        0.234000    0.634000    0.634000     0.004307
NI4660   NI        0.234000    0.667333    0.667333     0.004307
NI4661   NI        0.267333    0.634000    0.667333     0.004307
NI4662   NI        0.267333    0.667333    0.634000     0.004307
CU4663   CU        0.300667    0.634000    0.634000     0.006663
NI4664   NI        0.300667    0.667333    0.667333     0.004307
NI4665   NI        0.334000    0.634000    0.667333     0.004307
NI4666   NI        0.334000    0.667333    0.634000     0.004307
CU4667   CU        0.367333    0.634000    0.634000     0.006663
NI4668   NI        0.367333    0.667333    0.667333     0.004307
CU4669   CU        0.400667    0.634000    0.667333     0.006663
CU4670   CU        0.400667    0.667333    0.634000     0.006663
CU4671   CU        0.434000    0.634000    0.634000     0.006663
NI4672   NI        0.434000    0.667333    0.667333     0.004307
CU4673   CU        0.467333    0.634000    0.667333     0.006663
CU4674   CU        0.467333    0.667333    0.634000     0.006663
CU4675   CU        0.500667    0.634000    0.634000     0.006663
NI4676   NI        0.500667    0.667333    0.667333     0.004307
NI4677   NI        0.534000    0.634000    0.667333     0.004307
NI4678   NI        0.534000    0.667333    0.634000     0.004307
CU4679   CU        0.567333    0.634000    0.634000     0.006663
NI4680   NI        0.567333    0.667333    0.667333     0.004307
NI4681   NI        0.600667    0.634000    0.667333     0.004307
NI4682   NI        0.600667    0.667333    0.634000     0.004307
NI4683   NI        0.634000    0.634000    0.634000     0.004307
NI4684   NI        0.634000    0.667333    0.667333     0.004307
NI4685   NI        0.667333    0.634000    0.667333     0.004307
NI4686   NI        0.667333    0.667333    0.634000     0.004307
NI4687   NI        0.700667    0.634000    0.634000     0.004307
NI4688   NI        0.700667    0.667333    0.667333     0.004307
NI4689   NI        0.734000    0.634000    0.667333     0.004307
NI4690   NI        0.734000    0.667333    0.634000     0.004307
NI4691   NI        0.767333    0.634000    0.634000     0.004307
NI4692   NI        0.167333    0.700667    0.634000     0.004307
NI4693   NI        0.200667    0.700667    0.667333     0.004307
NI4694   NI        0.200667    0.734000    0.634000     0.004307
NI4695   NI        0.234000    0.700667    0.634000     0.004307
NI4696   NI        0.234000    0.734000    0.667333     0.004307
NI4697   NI        0.267333    0.700667    0.667333     0.004307
NI4698   NI        0.267333    0.734000    0.634000     0.004307
NI4699   NI        0.300667    0.700667    0.634000     0.004307
NI4700   NI        0.300667    0.734000    0.667333     0.004307
NI4701   NI        0.334000    0.700667    0.667333     0.004307
NI4702   NI        0.334000    0.734000    0.634000     0.004307
NI4703   NI        0.367333    0.700667    0.634000     0.004307
NI4704   NI        0.367333    0.734000    0.667333     0.004307
NI4705   NI        0.400667    0.700667    0.667333     0.004307
NI4706   NI        0.400667    0.734000    0.634000     0.004307
NI4707   NI        0.434000    0.700667    0.634000     0.004307
NI4708   NI        0.434000    0.734000    0.667333     0.004307
NI4709   NI        0.467333    0.700667    0.667333     0.004307
NI4710   NI        0.467333    0.734000    0.634000     0.004307
NI4711   NI        0.500667    0.700667    0.634000     0.004307
NI4712   NI        0.500667    0.734000    0.667333     0.004307
NI4713   NI        0.534000    0.700667    0.667333     0.004307
NI4714   NI        0.534000    0.734000    0.634000     0.004307
NI4715   NI        0.567333    0.700667    0.634000     0.004307
NI4716   NI        0.567333    0.734000    0.667333     0.004307
NI4717   NI        0.600667    0.700667    0.667333     0.004307
NI4718   NI        0.600667    0.734000    0.634000     0.004307
NI4719   NI        0.634000    0.700667    0.634000     0.004307
NI4720   NI        0.634000    0.734000    0.667333     0.004307
NI4721   NI        0.667333    0.700667    0.667333     0.004307
NI4722   NI        0.667333    0.734000    0.634000     0.004307
NI4723   NI        0.700667    0.700667    0.634000     0.004307
NI4724   NI        0.234000    0.767333    0.634000     0.004307
NI4725   NI        0.267333    0.767333    0.667333     0.004307
NI4726   NI        0.267333    0.800667    0.634000     0.004307
NI4727   NI        0.300667    0.767333    0.634000     0.004307
NI4728   NI        0.300667    0.800667    0.667333     0.004307
NI4729   NI        0.334000    0.767333    0.667333     0.004307
NI4730   NI        0.334000    0.800667    0.634000     0.004307
NI4731   NI        0.367333    0.767333    0.634000     0.004307
NI4732   NI        0.367333    0.800667    0.667333     0.004307
NI4733   NI        0.400667    0.767333    0.667333     0.004307
NI4734   NI        0.400667    0.800667    0.634000     0.004307
NI4735   NI        0.434000    0.767333    0.634000     0.004307
NI4736   NI        0.434000    0.800667    0.667333     0.004307
NI4737   NI        0.467333    0.767333    0.667333     0.004307
NI4738   NI        0.467333    0.800667    0.634000     0.004307
NI4739   NI        0.500667    0.767333    0.634000     0.004307
NI4740   NI        0.500667    0.800667    0.667333     0.004307
NI4741   NI        0.534000    0.767333    0.667333     0.004307
NI4742   NI        0.534000    0.800667    0.634000     0.004307
NI4743   NI        0.567333    0.767333    0.634000     0.004307
NI4744   NI        0.567333    0.800667    0.667333     0.004307
NI4745   NI        0.600667    0.767333    0.667333     0.004307
NI4746   NI        0.600667    0.800667    0.634000     0.004307
NI4747   NI        0.634000    0.767333    0.634000     0.004307
NI4748   NI        0.367333    0.834000    0.634000     0.004307
NI4749   NI        0.434000    0.834000    0.634000     0.004307
NI4750   NI        0.500667    0.834000    0.634000     0.004307
NI4751   NI        0.400667    0.067333    0.700667     0.004307
NI4752   NI        0.467333    0.067333    0.700667     0.004307
NI4753   NI        0.267333    0.134000    0.700667     0.004307
NI4754   NI        0.300667    0.100667    0.700667     0.004307
NI4755   NI        0.300667    0.134000    0.734000     0.004307
NI4756   NI        0.334000    0.100667    0.734000     0.004307
NI4757   NI        0.334000    0.134000    0.700667     0.004307
NI4758   NI        0.367333    0.100667    0.700667     0.004307
NI4759   NI        0.367333    0.134000    0.734000     0.004307
NI4760   NI        0.400667    0.100667    0.734000     0.004307
NI4761   NI        0.400667    0.134000    0.700667     0.004307
NI4762   NI        0.434000    0.100667    0.700667     0.004307
NI4763   NI        0.434000    0.134000    0.734000     0.004307
NI4764   NI        0.467333    0.100667    0.734000     0.004307
NI4765   NI        0.467333    0.134000    0.700667     0.004307
NI4766   NI        0.500667    0.100667    0.700667     0.004307
NI4767   NI        0.500667    0.134000    0.734000     0.004307
NI4768   NI        0.534000    0.100667    0.734000     0.004307
NI4769   NI        0.534000    0.134000    0.700667     0.004307
NI4770   NI        0.567333    0.100667    0.700667     0.004307
NI4771   NI        0.567333    0.134000    0.734000     0.004307
NI4772   NI        0.600667    0.134000    0.700667     0.004307
NI4773   NI        0.200667    0.200667    0.700667     0.004307
NI4774   NI        0.234000    0.167333    0.700667     0.004307
NI4775   NI        0.234000    0.200667    0.734000     0.004307
NI4776   NI        0.267333    0.167333    0.734000     0.004307
NI4777   NI        0.267333    0.200667    0.700667     0.004307
NI4778   NI        0.300667    0.167333    0.700667     0.004307
NI4779   NI        0.300667    0.200667    0.734000     0.004307
NI4780   NI        0.334000    0.167333    0.734000     0.004307
NI4781   NI        0.334000    0.200667    0.700667     0.004307
NI4782   NI        0.367333    0.167333    0.700667     0.004307
NI4783   NI        0.367333    0.200667    0.734000     0.004307
NI4784   NI        0.400667    0.167333    0.734000     0.004307
NI4785   NI        0.400667    0.200667    0.700667     0.004307
NI4786   NI        0.434000    0.167333    0.700667     0.004307
NI4787   NI        0.434000    0.200667    0.734000     0.004307
NI4788   NI        0.467333    0.167333    0.734000     0.004307
NI4789   NI        0.467333    0.200667    0.700667     0.004307
NI4790   NI        0.500667    0.167333    0.700667     0.004307
NI4791   NI        0.500667    0.200667    0.734000     0.004307
NI4792   NI        0.534000    0.167333    0.734000     0.004307
NI4793   NI        0.534000    0.200667    0.700667     0.004307
NI4794   NI        0.567333    0.167333    0.700667     0.004307
NI4795   NI        0.567333    0.200667    0.734000     0.004307
NI4796   NI        0.600667    0.167333    0.734000     0.004307
NI4797   NI        0.600667    0.200667    0.700667     0.004307
NI4798   NI        0.634000    0.167333    0.700667     0.004307
NI4799   NI        0.634000    0.200667    0.734000     0.004307
NI4800   NI        0.667333    0.200667    0.700667     0.004307
NI4801   NI        0.134000    0.267333    0.700667     0.004307
NI4802   NI        0.167333    0.234000    0.700667     0.004307
NI4803   NI        0.167333    0.267333    0.734000     0.004307
NI4804   NI        0.200667    0.234000    0.734000     0.004307
NI4805   NI        0.200667    0.267333    0.700667     0.004307
NI4806   NI        0.234000    0.234000    0.700667     0.004307
NI4807   NI        0.234000    0.267333    0.734000     0.004307
NI4808   NI        0.267333    0.234000    0.734000     0.004307
NI4809   NI        0.267333    0.267333    0.700667     0.004307
NI4810   NI        0.300667    0.234000    0.700667     0.004307
NI4811   NI        0.300667    0.267333    0.734000     0.004307
NI4812   NI        0.334000    0.234000    0.734000     0.004307
NI4813   NI        0.334000    0.267333    0.700667     0.004307
NI4814   NI        0.367333    0.234000    0.700667     0.004307
NI4815   NI        0.367333    0.267333    0.734000     0.004307
NI4816   NI        0.400667    0.234000    0.734000     0.004307
CU4817   CU        0.400667    0.267333    0.700667     0.006663
NI4818   NI        0.434000    0.234000    0.700667     0.004307
NI4819   NI        0.434000    0.267333    0.734000     0.004307
NI4820   NI        0.467333    0.234000    0.734000     0.004307
CU4821   CU        0.467333    0.267333    0.700667     0.006663
NI4822   NI        0.500667    0.234000    0.700667     0.004307
NI4823   NI        0.500667    0.267333    0.734000     0.004307
NI4824   NI        0.534000    0.234000    0.734000     0.004307
NI4825   NI        0.534000    0.267333    0.700667     0.004307
NI4826   NI        0.567333    0.234000    0.700667     0.004307
NI4827   NI        0.567333    0.267333    0.734000     0.004307
NI4828   NI        0.600667    0.234000    0.734000     0.004307
NI4829   NI        0.600667    0.267333    0.700667     0.004307
NI4830   NI        0.634000    0.234000    0.700667     0.004307
NI4831   NI        0.634000    0.267333    0.734000     0.004307
NI4832   NI        0.667333    0.234000    0.734000     0.004307
NI4833   NI        0.667333    0.267333    0.700667     0.004307
NI4834   NI        0.700667    0.234000    0.700667     0.004307
NI4835   NI        0.700667    0.267333    0.734000     0.004307
NI4836   NI        0.734000    0.267333    0.700667     0.004307
NI4837   NI        0.100667    0.300667    0.700667     0.004307
NI4838   NI        0.100667    0.334000    0.734000     0.004307
NI4839   NI        0.134000    0.300667    0.734000     0.004307
NI4840   NI        0.134000    0.334000    0.700667     0.004307
NI4841   NI        0.167333    0.300667    0.700667     0.004307
NI4842   NI        0.167333    0.334000    0.734000     0.004307
NI4843   NI        0.200667    0.300667    0.734000     0.004307
NI4844   NI        0.200667    0.334000    0.700667     0.004307
NI4845   NI        0.234000    0.300667    0.700667     0.004307
NI4846   NI        0.234000    0.334000    0.734000     0.004307
NI4847   NI        0.267333    0.300667    0.734000     0.004307
NI4848   NI        0.267333    0.334000    0.700667     0.004307
NI4849   NI        0.300667    0.300667    0.700667     0.004307
NI4850   NI        0.300667    0.334000    0.734000     0.004307
NI4851   NI        0.334000    0.300667    0.734000     0.004307
CU4852   CU        0.334000    0.334000    0.700667     0.006663
CU4853   CU        0.367333    0.300667    0.700667     0.006663
NI4854   NI        0.367333    0.334000    0.734000     0.004307
NI4855   NI        0.400667    0.300667    0.734000     0.004307
CU4856   CU        0.400667    0.334000    0.700667     0.006663
CU4857   CU        0.434000    0.300667    0.700667     0.006663
CU4858   CU        0.434000    0.334000    0.734000     0.006663
NI4859   NI        0.467333    0.300667    0.734000     0.004307
CU4860   CU        0.467333    0.334000    0.700667     0.006663
CU4861   CU        0.500667    0.300667    0.700667     0.006663
NI4862   NI        0.500667    0.334000    0.734000     0.004307
NI4863   NI        0.534000    0.300667    0.734000     0.004307
CU4864   CU        0.534000    0.334000    0.700667     0.006663
NI4865   NI        0.567333    0.300667    0.700667     0.004307
NI4866   NI        0.567333    0.334000    0.734000     0.004307
NI4867   NI        0.600667    0.300667    0.734000     0.004307
NI4868   NI        0.600667    0.334000    0.700667     0.004307
NI4869   NI        0.634000    0.300667    0.700667     0.004307
NI4870   NI        0.634000    0.334000    0.734000     0.004307
NI4871   NI        0.667333    0.300667    0.734000     0.004307
NI4872   NI        0.667333    0.334000    0.700667     0.004307
NI4873   NI        0.700667    0.300667    0.700667     0.004307
NI4874   NI        0.700667    0.334000    0.734000     0.004307
NI4875   NI        0.734000    0.300667    0.734000     0.004307
NI4876   NI        0.734000    0.334000    0.700667     0.004307
NI4877   NI        0.767333    0.300667    0.700667     0.004307
NI4878   NI        0.767333    0.334000    0.734000     0.004307
NI4879   NI        0.067333    0.400667    0.700667     0.004307
NI4880   NI        0.100667    0.367333    0.700667     0.004307
NI4881   NI        0.100667    0.400667    0.734000     0.004307
NI4882   NI        0.134000    0.367333    0.734000     0.004307
NI4883   NI        0.134000    0.400667    0.700667     0.004307
NI4884   NI        0.167333    0.367333    0.700667     0.004307
NI4885   NI        0.167333    0.400667    0.734000     0.004307
NI4886   NI        0.200667    0.367333    0.734000     0.004307
NI4887   NI        0.200667    0.400667    0.700667     0.004307
NI4888   NI        0.234000    0.367333    0.700667     0.004307
NI4889   NI        0.234000    0.400667    0.734000     0.004307
NI4890   NI        0.267333    0.367333    0.734000     0.004307
CU4891   CU        0.267333    0.400667    0.700667     0.006663
CU4892   CU        0.300667    0.367333    0.700667     0.006663
NI4893   NI        0.300667    0.400667    0.734000     0.004307
NI4894   NI        0.334000    0.367333    0.734000     0.004307
CU4895   CU        0.334000    0.400667    0.700667     0.006663
CU4896   CU        0.367333    0.367333    0.700667     0.006663
CU4897   CU        0.367333    0.400667    0.734000     0.006663
CU4898   CU        0.400667    0.367333    0.734000     0.006663
CU4899   CU        0.400667    0.400667    0.700667     0.006663
CU4900   CU        0.434000    0.367333    0.700667     0.006663
CU4901   CU        0.434000    0.400667    0.734000     0.006663
CU4902   CU        0.467333    0.367333    0.734000     0.006663
CU4903   CU        0.467333    0.400667    0.700667     0.006663
CU4904   CU        0.500667    0.367333    0.700667     0.006663
CU4905   CU        0.500667    0.400667    0.734000     0.006663
NI4906   NI        0.534000    0.367333    0.734000     0.004307
CU4907   CU        0.534000    0.400667    0.700667     0.006663
CU4908   CU        0.567333    0.367333    0.700667     0.006663
NI4909   NI        0.567333    0.400667    0.734000     0.004307
NI4910   NI        0.600667    0.367333    0.734000     0.004307
CU4911   CU        0.600667    0.400667    0.700667     0.006663
NI4912   NI        0.634000    0.367333    0.700667     0.004307
NI4913   NI        0.634000    0.400667    0.734000     0.004307
NI4914   NI        0.667333    0.367333    0.734000     0.004307
NI4915   NI        0.667333    0.400667    0.700667     0.004307
NI4916   NI        0.700667    0.367333    0.700667     0.004307
NI4917   NI        0.700667    0.400667    0.734000     0.004307
NI4918   NI        0.734000    0.367333    0.734000     0.004307
NI4919   NI        0.734000    0.400667    0.700667     0.004307
NI4920   NI        0.767333    0.367333    0.700667     0.004307
NI4921   NI        0.767333    0.400667    0.734000     0.004307
NI4922   NI        0.800667    0.400667    0.700667     0.004307
NI4923   NI        0.067333    0.467333    0.700667     0.004307
NI4924   NI        0.100667    0.434000    0.700667     0.004307
NI4925   NI        0.100667    0.467333    0.734000     0.004307
NI4926   NI        0.134000    0.434000    0.734000     0.004307
NI4927   NI        0.134000    0.467333    0.700667     0.004307
NI4928   NI        0.167333    0.434000    0.700667     0.004307
NI4929   NI        0.167333    0.467333    0.734000     0.004307
NI4930   NI        0.200667    0.434000    0.734000     0.004307
NI4931   NI        0.200667    0.467333    0.700667     0.004307
NI4932   NI        0.234000    0.434000    0.700667     0.004307
NI4933   NI        0.234000    0.467333    0.734000     0.004307
NI4934   NI        0.267333    0.434000    0.734000     0.004307
CU4935   CU        0.267333    0.467333    0.700667     0.006663
CU4936   CU        0.300667    0.434000    0.700667     0.006663
NI4937   NI        0.300667    0.467333    0.734000     0.004307
CU4938   CU        0.334000    0.434000    0.734000     0.006663
CU4939   CU        0.334000    0.467333    0.700667     0.006663
CU4940   CU        0.367333    0.434000    0.700667     0.006663
CU4941   CU        0.367333    0.467333    0.734000     0.006663
CU4942   CU        0.400667    0.434000    0.734000     0.006663
CU4943   CU        0.400667    0.467333    0.700667     0.006663
CU4944   CU        0.434000    0.434000    0.700667     0.006663
CU4945   CU        0.434000    0.467333    0.734000     0.006663
CU4946   CU        0.467333    0.434000    0.734000     0.006663
CU4947   CU        0.467333    0.467333    0.700667     0.006663
CU4948   CU        0.500667    0.434000    0.700667     0.006663
CU4949   CU        0.500667    0.467333    0.734000     0.006663
CU4950   CU        0.534000    0.434000    0.734000     0.006663
CU4951   CU        0.534000    0.467333    0.700667     0.006663
CU4952   CU        0.567333    0.434000    0.700667     0.006663
NI4953   NI        0.567333    0.467333    0.734000     0.004307
NI4954   NI        0.600667    0.434000    0.734000     0.004307
CU4955   CU        0.600667    0.467333    0.700667     0.006663
NI4956   NI        0.634000    0.434000    0.700667     0.004307
NI4957   NI        0.634000    0.467333    0.734000     0.004307
NI4958   NI        0.667333    0.434000    0.734000     0.004307
NI4959   NI        0.667333    0.467333    0.700667     0.004307
NI4960   NI        0.700667    0.434000    0.700667     0.004307
NI4961   NI        0.700667    0.467333    0.734000     0.004307
NI4962   NI        0.734000    0.434000    0.734000     0.004307
NI4963   NI        0.734000    0.467333    0.700667     0.004307
NI4964   NI        0.767333    0.434000    0.700667     0.004307
NI4965   NI        0.767333    0.467333    0.734000     0.004307
NI4966   NI        0.800667    0.467333    0.700667     0.004307
NI4967   NI        0.100667    0.500667    0.700667     0.004307
NI4968   NI        0.100667    0.534000    0.734000     0.004307
NI4969   NI        0.134000    0.500667    0.734000     0.004307
NI4970   NI        0.134000    0.534000    0.700667     0.004307
NI4971   NI        0.167333    0.500667    0.700667     0.004307
NI4972   NI        0.167333    0.534000    0.734000     0.004307
NI4973   NI        0.200667    0.500667    0.734000     0.004307
NI4974   NI        0.200667    0.534000    0.700667     0.004307
NI4975   NI        0.234000    0.500667    0.700667     0.004307
NI4976   NI        0.234000    0.534000    0.734000     0.004307
NI4977   NI        0.267333    0.500667    0.734000     0.004307
NI4978   NI        0.267333    0.534000    0.700667     0.004307
CU4979   CU        0.300667    0.500667    0.700667     0.006663
NI4980   NI        0.300667    0.534000    0.734000     0.004307
NI4981   NI        0.334000    0.500667    0.734000     0.004307
CU4982   CU        0.334000    0.534000    0.700667     0.006663
CU4983   CU        0.367333    0.500667    0.700667     0.006663
NI4984   NI        0.367333    0.534000    0.734000     0.004307
CU4985   CU        0.400667    0.500667    0.734000     0.006663
CU4986   CU        0.400667    0.534000    0.700667     0.006663
CU4987   CU        0.434000    0.500667    0.700667     0.006663
CU4988   CU        0.434000    0.534000    0.734000     0.006663
CU4989   CU        0.467333    0.500667    0.734000     0.006663
CU4990   CU        0.467333    0.534000    0.700667     0.006663
CU4991   CU        0.500667    0.500667    0.700667     0.006663
NI4992   NI        0.500667    0.534000    0.734000     0.004307
NI4993   NI        0.534000    0.500667    0.734000     0.004307
CU4994   CU        0.534000    0.534000    0.700667     0.006663
CU4995   CU        0.567333    0.500667    0.700667     0.006663
NI4996   NI        0.567333    0.534000    0.734000     0.004307
NI4997   NI        0.600667    0.500667    0.734000     0.004307
NI4998   NI        0.600667    0.534000    0.700667     0.004307
NI4999   NI        0.634000    0.500667    0.700667     0.004307
NI5000   NI        0.634000    0.534000    0.734000     0.004307
NI5001   NI        0.667333    0.500667    0.734000     0.004307
NI5002   NI        0.667333    0.534000    0.700667     0.004307
NI5003   NI        0.700667    0.500667    0.700667     0.004307
NI5004   NI        0.700667    0.534000    0.734000     0.004307
NI5005   NI        0.734000    0.500667    0.734000     0.004307
NI5006   NI        0.734000    0.534000    0.700667     0.004307
NI5007   NI        0.767333    0.500667    0.700667     0.004307
NI5008   NI        0.767333    0.534000    0.734000     0.004307
NI5009   NI        0.100667    0.567333    0.700667     0.004307
NI5010   NI        0.134000    0.567333    0.734000     0.004307
NI5011   NI        0.134000    0.600667    0.700667     0.004307
NI5012   NI        0.167333    0.567333    0.700667     0.004307
NI5013   NI        0.167333    0.600667    0.734000     0.004307
NI5014   NI        0.200667    0.567333    0.734000     0.004307
NI5015   NI        0.200667    0.600667    0.700667     0.004307
NI5016   NI        0.234000    0.567333    0.700667     0.004307
NI5017   NI        0.234000    0.600667    0.734000     0.004307
NI5018   NI        0.267333    0.567333    0.734000     0.004307
NI5019   NI        0.267333    0.600667    0.700667     0.004307
NI5020   NI        0.300667    0.567333    0.700667     0.004307
NI5021   NI        0.300667    0.600667    0.734000     0.004307
NI5022   NI        0.334000    0.567333    0.734000     0.004307
NI5023   NI        0.334000    0.600667    0.700667     0.004307
CU5024   CU        0.367333    0.567333    0.700667     0.006663
NI5025   NI        0.367333    0.600667    0.734000     0.004307
NI5026   NI        0.400667    0.567333    0.734000     0.004307
CU5027   CU        0.400667    0.600667    0.700667     0.006663
CU5028   CU        0.434000    0.567333    0.700667     0.006663
NI5029   NI        0.434000    0.600667    0.734000     0.004307
NI5030   NI        0.467333    0.567333    0.734000     0.004307
CU5031   CU        0.467333    0.600667    0.700667     0.006663
CU5032   CU        0.500667    0.567333    0.700667     0.006663
NI5033   NI        0.500667    0.600667    0.734000     0.004307
NI5034   NI        0.534000    0.567333    0.734000     0.004307
NI5035   NI        0.534000    0.600667    0.700667     0.004307
NI5036   NI        0.567333    0.567333    0.700667     0.004307
NI5037   NI        0.567333    0.600667    0.734000     0.004307
NI5038   NI        0.600667    0.567333    0.734000     0.004307
NI5039   NI        0.600667    0.600667    0.700667     0.004307
NI5040   NI        0.634000    0.567333    0.700667     0.004307
NI5041   NI        0.634000    0.600667    0.734000     0.004307
NI5042   NI        0.667333    0.567333    0.734000     0.004307
NI5043   NI        0.667333    0.600667    0.700667     0.004307
NI5044   NI        0.700667    0.567333    0.700667     0.004307
NI5045   NI        0.700667    0.600667    0.734000     0.004307
NI5046   NI        0.734000    0.567333    0.734000     0.004307
NI5047   NI        0.734000    0.600667    0.700667     0.004307
NI5048   NI        0.767333    0.567333    0.700667     0.004307
NI5049   NI        0.167333    0.634000    0.700667     0.004307
NI5050   NI        0.200667    0.634000    0.734000     0.004307
NI5051   NI        0.200667    0.667333    0.700667     0.004307
NI5052   NI        0.234000    0.634000    0.700667     0.004307
NI5053   NI        0.234000    0.667333    0.734000     0.004307
NI5054   NI        0.267333    0.634000    0.734000     0.004307
NI5055   NI        0.267333    0.667333    0.700667     0.004307
NI5056   NI        0.300667    0.634000    0.700667     0.004307
NI5057   NI        0.300667    0.667333    0.734000     0.004307
NI5058   NI        0.334000    0.634000    0.734000     0.004307
NI5059   NI        0.334000    0.667333    0.700667     0.004307
NI5060   NI        0.367333    0.634000    0.700667     0.004307
NI5061   NI        0.367333    0.667333    0.734000     0.004307
NI5062   NI        0.400667    0.634000    0.734000     0.004307
NI5063   NI        0.400667    0.667333    0.700667     0.004307
NI5064   NI        0.434000    0.634000    0.700667     0.004307
NI5065   NI        0.434000    0.667333    0.734000     0.004307
NI5066   NI        0.467333    0.634000    0.734000     0.004307
NI5067   NI        0.467333    0.667333    0.700667     0.004307
NI5068   NI        0.500667    0.634000    0.700667     0.004307
NI5069   NI        0.500667    0.667333    0.734000     0.004307
NI5070   NI        0.534000    0.634000    0.734000     0.004307
NI5071   NI        0.534000    0.667333    0.700667     0.004307
NI5072   NI        0.567333    0.634000    0.700667     0.004307
NI5073   NI        0.567333    0.667333    0.734000     0.004307
NI5074   NI        0.600667    0.634000    0.734000     0.004307
NI5075   NI        0.600667    0.667333    0.700667     0.004307
NI5076   NI        0.634000    0.634000    0.700667     0.004307
NI5077   NI        0.634000    0.667333    0.734000     0.004307
NI5078   NI        0.667333    0.634000    0.734000     0.004307
NI5079   NI        0.667333    0.667333    0.700667     0.004307
NI5080   NI        0.700667    0.634000    0.700667     0.004307
NI5081   NI        0.234000    0.700667    0.700667     0.004307
NI5082   NI        0.267333    0.700667    0.734000     0.004307
NI5083   NI        0.267333    0.734000    0.700667     0.004307
NI5084   NI        0.300667    0.700667    0.700667     0.004307
NI5085   NI        0.300667    0.734000    0.734000     0.004307
NI5086   NI        0.334000    0.700667    0.734000     0.004307
NI5087   NI        0.334000    0.734000    0.700667     0.004307
NI5088   NI        0.367333    0.700667    0.700667     0.004307
NI5089   NI        0.367333    0.734000    0.734000     0.004307
NI5090   NI        0.400667    0.700667    0.734000     0.004307
NI5091   NI        0.400667    0.734000    0.700667     0.004307
NI5092   NI        0.434000    0.700667    0.700667     0.004307
NI5093   NI        0.434000    0.734000    0.734000     0.004307
NI5094   NI        0.467333    0.700667    0.734000     0.004307
NI5095   NI        0.467333    0.734000    0.700667     0.004307
NI5096   NI        0.500667    0.700667    0.700667     0.004307
NI5097   NI        0.500667    0.734000    0.734000     0.004307
NI5098   NI        0.534000    0.700667    0.734000     0.004307
NI5099   NI        0.534000    0.734000    0.700667     0.004307
NI5100   NI        0.567333    0.700667    0.700667     0.004307
NI5101   NI        0.567333    0.734000    0.734000     0.004307
NI5102   NI        0.600667    0.700667    0.734000     0.004307
NI5103   NI        0.600667    0.734000    0.700667     0.004307
NI5104   NI        0.634000    0.700667    0.700667     0.004307
NI5105   NI        0.300667    0.767333    0.700667     0.004307
NI5106   NI        0.334000    0.767333    0.734000     0.004307
NI5107   NI        0.367333    0.767333    0.700667     0.004307
NI5108   NI        0.400667    0.767333    0.734000     0.004307
NI5109   NI        0.400667    0.800667    0.700667     0.004307
NI5110   NI        0.434000    0.767333    0.700667     0.004307
NI5111   NI        0.467333    0.767333    0.734000     0.004307
NI5112   NI        0.467333    0.800667    0.700667     0.004307
NI5113   NI        0.500667    0.767333    0.700667     0.004307
NI5114   NI        0.534000    0.767333    0.734000     0.004307
NI5115   NI        0.567333    0.767333    0.700667     0.004307
NI5116   NI        0.334000    0.134000    0.767333     0.004307
NI5117   NI        0.400667    0.134000    0.767333     0.004307
NI5118   NI        0.467333    0.134000    0.767333     0.004307
NI5119   NI        0.534000    0.134000    0.767333     0.004307
NI5120   NI        0.267333    0.200667    0.767333     0.004307
NI5121   NI        0.300667    0.167333    0.767333     0.004307
NI5122   NI        0.300667    0.200667    0.800667     0.004307
NI5123   NI        0.334000    0.200667    0.767333     0.004307
NI5124   NI        0.367333    0.167333    0.767333     0.004307
NI5125   NI        0.367333    0.200667    0.800667     0.004307
NI5126   NI        0.400667    0.167333    0.800667     0.004307
NI5127   NI        0.400667    0.200667    0.767333     0.004307
NI5128   NI        0.434000    0.167333    0.767333     0.004307
NI5129   NI        0.434000    0.200667    0.800667     0.004307
NI5130   NI        0.467333    0.167333    0.800667     0.004307
NI5131   NI        0.467333    0.200667    0.767333     0.004307
NI5132   NI        0.500667    0.167333    0.767333     0.004307
NI5133   NI        0.500667    0.200667    0.800667     0.004307
NI5134   NI        0.534000    0.200667    0.767333     0.004307
NI5135   NI        0.567333    0.167333    0.767333     0.004307
NI5136   NI        0.567333    0.200667    0.800667     0.004307
NI5137   NI        0.600667    0.200667    0.767333     0.004307
NI5138   NI        0.200667    0.267333    0.767333     0.004307
NI5139   NI        0.234000    0.234000    0.767333     0.004307
NI5140   NI        0.234000    0.267333    0.800667     0.004307
NI5141   NI        0.267333    0.234000    0.800667     0.004307
NI5142   NI        0.267333    0.267333    0.767333     0.004307
NI5143   NI        0.300667    0.234000    0.767333     0.004307
NI5144   NI        0.300667    0.267333    0.800667     0.004307
NI5145   NI        0.334000    0.234000    0.800667     0.004307
NI5146   NI        0.334000    0.267333    0.767333     0.004307
NI5147   NI        0.367333    0.234000    0.767333     0.004307
NI5148   NI        0.367333    0.267333    0.800667     0.004307
NI5149   NI        0.400667    0.234000    0.800667     0.004307
NI5150   NI        0.400667    0.267333    0.767333     0.004307
NI5151   NI        0.434000    0.234000    0.767333     0.004307
NI5152   NI        0.434000    0.267333    0.800667     0.004307
NI5153   NI        0.467333    0.234000    0.800667     0.004307
NI5154   NI        0.467333    0.267333    0.767333     0.004307
NI5155   NI        0.500667    0.234000    0.767333     0.004307
NI5156   NI        0.500667    0.267333    0.800667     0.004307
NI5157   NI        0.534000    0.234000    0.800667     0.004307
NI5158   NI        0.534000    0.267333    0.767333     0.004307
NI5159   NI        0.567333    0.234000    0.767333     0.004307
NI5160   NI        0.567333    0.267333    0.800667     0.004307
NI5161   NI        0.600667    0.234000    0.800667     0.004307
NI5162   NI        0.600667    0.267333    0.767333     0.004307
NI5163   NI        0.634000    0.234000    0.767333     0.004307
NI5164   NI        0.634000    0.267333    0.800667     0.004307
NI5165   NI        0.667333    0.267333    0.767333     0.004307
NI5166   NI        0.134000    0.334000    0.767333     0.004307
NI5167   NI        0.167333    0.300667    0.767333     0.004307
NI5168   NI        0.200667    0.300667    0.800667     0.004307
NI5169   NI        0.200667    0.334000    0.767333     0.004307
NI5170   NI        0.234000    0.300667    0.767333     0.004307
NI5171   NI        0.234000    0.334000    0.800667     0.004307
NI5172   NI        0.267333    0.300667    0.800667     0.004307
NI5173   NI        0.267333    0.334000    0.767333     0.004307
NI5174   NI        0.300667    0.300667    0.767333     0.004307
NI5175   NI        0.300667    0.334000    0.800667     0.004307
NI5176   NI        0.334000    0.300667    0.800667     0.004307
NI5177   NI        0.334000    0.334000    0.767333     0.004307
NI5178   NI        0.367333    0.300667    0.767333     0.004307
NI5179   NI        0.367333    0.334000    0.800667     0.004307
NI5180   NI        0.400667    0.300667    0.800667     0.004307
NI5181   NI        0.400667    0.334000    0.767333     0.004307
NI5182   NI        0.434000    0.300667    0.767333     0.004307
NI5183   NI        0.434000    0.334000    0.800667     0.004307
NI5184   NI        0.467333    0.300667    0.800667     0.004307
NI5185   NI        0.467333    0.334000    0.767333     0.004307
NI5186   NI        0.500667    0.300667    0.767333     0.004307
NI5187   NI        0.500667    0.334000    0.800667     0.004307
NI5188   NI        0.534000    0.300667    0.800667     0.004307
NI5189   NI        0.534000    0.334000    0.767333     0.004307
NI5190   NI        0.567333    0.300667    0.767333     0.004307
NI5191   NI        0.567333    0.334000    0.800667     0.004307
NI5192   NI        0.600667    0.300667    0.800667     0.004307
NI5193   NI        0.600667    0.334000    0.767333     0.004307
NI5194   NI        0.634000    0.300667    0.767333     0.004307
NI5195   NI        0.634000    0.334000    0.800667     0.004307
NI5196   NI        0.667333    0.300667    0.800667     0.004307
NI5197   NI        0.667333    0.334000    0.767333     0.004307
NI5198   NI        0.700667    0.300667    0.767333     0.004307
NI5199   NI        0.734000    0.334000    0.767333     0.004307
NI5200   NI        0.134000    0.400667    0.767333     0.004307
NI5201   NI        0.167333    0.367333    0.767333     0.004307
NI5202   NI        0.167333    0.400667    0.800667     0.004307
NI5203   NI        0.200667    0.367333    0.800667     0.004307
NI5204   NI        0.200667    0.400667    0.767333     0.004307
NI5205   NI        0.234000    0.367333    0.767333     0.004307
NI5206   NI        0.234000    0.400667    0.800667     0.004307
NI5207   NI        0.267333    0.367333    0.800667     0.004307
NI5208   NI        0.267333    0.400667    0.767333     0.004307
NI5209   NI        0.300667    0.367333    0.767333     0.004307
NI5210   NI        0.300667    0.400667    0.800667     0.004307
NI5211   NI        0.334000    0.367333    0.800667     0.004307
NI5212   NI        0.334000    0.400667    0.767333     0.004307
NI5213   NI        0.367333    0.367333    0.767333     0.004307
NI5214   NI        0.367333    0.400667    0.800667     0.004307
NI5215   NI        0.400667    0.367333    0.800667     0.004307
NI5216   NI        0.400667    0.400667    0.767333     0.004307
NI5217   NI        0.434000    0.367333    0.767333     0.004307
NI5218   NI        0.434000    0.400667    0.800667     0.004307
NI5219   NI        0.467333    0.367333    0.800667     0.004307
NI5220   NI        0.467333    0.400667    0.767333     0.004307
NI5221   NI        0.500667    0.367333    0.767333     0.004307
NI5222   NI        0.500667    0.400667    0.800667     0.004307
NI5223   NI        0.534000    0.367333    0.800667     0.004307
NI5224   NI        0.534000    0.400667    0.767333     0.004307
NI5225   NI        0.567333    0.367333    0.767333     0.004307
NI5226   NI        0.567333    0.400667    0.800667     0.004307
NI5227   NI        0.600667    0.367333    0.800667     0.004307
NI5228   NI        0.600667    0.400667    0.767333     0.004307
NI5229   NI        0.634000    0.367333    0.767333     0.004307
NI5230   NI        0.634000    0.400667    0.800667     0.004307
NI5231   NI        0.667333    0.367333    0.800667     0.004307
NI5232   NI        0.667333    0.400667    0.767333     0.004307
NI5233   NI        0.700667    0.367333    0.767333     0.004307
NI5234   NI        0.700667    0.400667    0.800667     0.004307
NI5235   NI        0.734000    0.400667    0.767333     0.004307
NI5236   NI        0.134000    0.467333    0.767333     0.004307
NI5237   NI        0.167333    0.434000    0.767333     0.004307
NI5238   NI        0.167333    0.467333    0.800667     0.004307
NI5239   NI        0.200667    0.434000    0.800667     0.004307
NI5240   NI        0.200667    0.467333    0.767333     0.004307
NI5241   NI        0.234000    0.434000    0.767333     0.004307
NI5242   NI        0.234000    0.467333    0.800667     0.004307
NI5243   NI        0.267333    0.434000    0.800667     0.004307
NI5244   NI        0.267333    0.467333    0.767333     0.004307
NI5245   NI        0.300667    0.434000    0.767333     0.004307
NI5246   NI        0.300667    0.467333    0.800667     0.004307
NI5247   NI        0.334000    0.434000    0.800667     0.004307
NI5248   NI        0.334000    0.467333    0.767333     0.004307
NI5249   NI        0.367333    0.434000    0.767333     0.004307
NI5250   NI        0.367333    0.467333    0.800667     0.004307
NI5251   NI        0.400667    0.434000    0.800667     0.004307
NI5252   NI        0.400667    0.467333    0.767333     0.004307
NI5253   NI        0.434000    0.434000    0.767333     0.004307
NI5254   NI        0.434000    0.467333    0.800667     0.004307
NI5255   NI        0.467333    0.434000    0.800667     0.004307
NI5256   NI        0.467333    0.467333    0.767333     0.004307
NI5257   NI        0.500667    0.434000    0.767333     0.004307
NI5258   NI        0.500667    0.467333    0.800667     0.004307
NI5259   NI        0.534000    0.434000    0.800667     0.004307
NI5260   NI        0.534000    0.467333    0.767333     0.004307
NI5261   NI        0.567333    0.434000    0.767333     0.004307
NI5262   NI        0.567333    0.467333    0.800667     0.004307
NI5263   NI        0.600667    0.434000    0.800667     0.004307
NI5264   NI        0.600667    0.467333    0.767333     0.004307
NI5265   NI        0.634000    0.434000    0.767333     0.004307
NI5266   NI        0.634000    0.467333    0.800667     0.004307
NI5267   NI        0.667333    0.434000    0.800667     0.004307
NI5268   NI        0.667333    0.467333    0.767333     0.004307
NI5269   NI        0.700667    0.434000    0.767333     0.004307
NI5270   NI        0.700667    0.467333    0.800667     0.004307
NI5271   NI        0.734000    0.467333    0.767333     0.004307
NI5272   NI        0.134000    0.534000    0.767333     0.004307
NI5273   NI        0.167333    0.500667    0.767333     0.004307
NI5274   NI        0.200667    0.500667    0.800667     0.004307
NI5275   NI        0.200667    0.534000    0.767333     0.004307
NI5276   NI        0.234000    0.500667    0.767333     0.004307
NI5277   NI        0.234000    0.534000    0.800667     0.004307
NI5278   NI        0.267333    0.500667    0.800667     0.004307
NI5279   NI        0.267333    0.534000    0.767333     0.004307
NI5280   NI        0.300667    0.500667    0.767333     0.004307
NI5281   NI        0.300667    0.534000    0.800667     0.004307
NI5282   NI        0.334000    0.500667    0.800667     0.004307
NI5283   NI        0.334000    0.534000    0.767333     0.004307
NI5284   NI        0.367333    0.500667    0.767333     0.004307
NI5285   NI        0.367333    0.534000    0.800667     0.004307
NI5286   NI        0.400667    0.500667    0.800667     0.004307
NI5287   NI        0.400667    0.534000    0.767333     0.004307
NI5288   NI        0.434000    0.500667    0.767333     0.004307
NI5289   NI        0.434000    0.534000    0.800667     0.004307
NI5290   NI        0.467333    0.500667    0.800667     0.004307
NI5291   NI        0.467333    0.534000    0.767333     0.004307
NI5292   NI        0.500667    0.500667    0.767333     0.004307
NI5293   NI        0.500667    0.534000    0.800667     0.004307
NI5294   NI        0.534000    0.500667    0.800667     0.004307
NI5295   NI        0.534000    0.534000    0.767333     0.004307
NI5296   NI        0.567333    0.500667    0.767333     0.004307
NI5297   NI        0.567333    0.534000    0.800667     0.004307
NI5298   NI        0.600667    0.500667    0.800667     0.004307
NI5299   NI        0.600667    0.534000    0.767333     0.004307
NI5300   NI        0.634000    0.500667    0.767333     0.004307
NI5301   NI        0.634000    0.534000    0.800667     0.004307
NI5302   NI        0.667333    0.500667    0.800667     0.004307
NI5303   NI        0.667333    0.534000    0.767333     0.004307
NI5304   NI        0.700667    0.500667    0.767333     0.004307
NI5305   NI        0.734000    0.534000    0.767333     0.004307
NI5306   NI        0.167333    0.567333    0.767333     0.004307
NI5307   NI        0.200667    0.567333    0.800667     0.004307
NI5308   NI        0.200667    0.600667    0.767333     0.004307
NI5309   NI        0.234000    0.567333    0.767333     0.004307
NI5310   NI        0.234000    0.600667    0.800667     0.004307
NI5311   NI        0.267333    0.567333    0.800667     0.004307
NI5312   NI        0.267333    0.600667    0.767333     0.004307
NI5313   NI        0.300667    0.567333    0.767333     0.004307
NI5314   NI        0.300667    0.600667    0.800667     0.004307
NI5315   NI        0.334000    0.567333    0.800667     0.004307
NI5316   NI        0.334000    0.600667    0.767333     0.004307
NI5317   NI        0.367333    0.567333    0.767333     0.004307
NI5318   NI        0.367333    0.600667    0.800667     0.004307
NI5319   NI        0.400667    0.567333    0.800667     0.004307
NI5320   NI        0.400667    0.600667    0.767333     0.004307
NI5321   NI        0.434000    0.567333    0.767333     0.004307
NI5322   NI        0.434000    0.600667    0.800667     0.004307
NI5323   NI        0.467333    0.567333    0.800667     0.004307
NI5324   NI        0.467333    0.600667    0.767333     0.004307
NI5325   NI        0.500667    0.567333    0.767333     0.004307
NI5326   NI        0.500667    0.600667    0.800667     0.004307
NI5327   NI        0.534000    0.567333    0.800667     0.004307
NI5328   NI        0.534000    0.600667    0.767333     0.004307
NI5329   NI        0.567333    0.567333    0.767333     0.004307
NI5330   NI        0.567333    0.600667    0.800667     0.004307
NI5331   NI        0.600667    0.567333    0.800667     0.004307
NI5332   NI        0.600667    0.600667    0.767333     0.004307
NI5333   NI        0.634000    0.567333    0.767333     0.004307
NI5334   NI        0.634000    0.600667    0.800667     0.004307
NI5335   NI        0.667333    0.567333    0.800667     0.004307
NI5336   NI        0.667333    0.600667    0.767333     0.004307
NI5337   NI        0.700667    0.567333    0.767333     0.004307
NI5338   NI        0.234000    0.634000    0.767333     0.004307
NI5339   NI        0.267333    0.634000    0.800667     0.004307
NI5340   NI        0.267333    0.667333    0.767333     0.004307
NI5341   NI        0.300667    0.634000    0.767333     0.004307
NI5342   NI        0.300667    0.667333    0.800667     0.004307
NI5343   NI        0.334000    0.634000    0.800667     0.004307
NI5344   NI        0.334000    0.667333    0.767333     0.004307
NI5345   NI        0.367333    0.634000    0.767333     0.004307
NI5346   NI        0.367333    0.667333    0.800667     0.004307
NI5347   NI        0.400667    0.634000    0.800667     0.004307
NI5348   NI        0.400667    0.667333    0.767333     0.004307
NI5349   NI        0.434000    0.634000    0.767333     0.004307
NI5350   NI        0.434000    0.667333    0.800667     0.004307
NI5351   NI        0.467333    0.634000    0.800667     0.004307
NI5352   NI        0.467333    0.667333    0.767333     0.004307
NI5353   NI        0.500667    0.634000    0.767333     0.004307
NI5354   NI        0.500667    0.667333    0.800667     0.004307
NI5355   NI        0.534000    0.634000    0.800667     0.004307
NI5356   NI        0.534000    0.667333    0.767333     0.004307
NI5357   NI        0.567333    0.634000    0.767333     0.004307
NI5358   NI        0.567333    0.667333    0.800667     0.004307
NI5359   NI        0.600667    0.634000    0.800667     0.004307
NI5360   NI        0.600667    0.667333    0.767333     0.004307
NI5361   NI        0.634000    0.634000    0.767333     0.004307
NI5362   NI        0.300667    0.700667    0.767333     0.004307
NI5363   NI        0.334000    0.734000    0.767333     0.004307
NI5364   NI        0.367333    0.700667    0.767333     0.004307
NI5365   NI        0.400667    0.700667    0.800667     0.004307
NI5366   NI        0.400667    0.734000    0.767333     0.004307
NI5367   NI        0.434000    0.700667    0.767333     0.004307
NI5368   NI        0.467333    0.700667    0.800667     0.004307
NI5369   NI        0.467333    0.734000    0.767333     0.004307
NI5370   NI        0.500667    0.700667    0.767333     0.004307
NI5371   NI        0.534000    0.734000    0.767333     0.004307
NI5372   NI        0.567333    0.700667    0.767333     0.004307
NI5373   NI        0.334000    0.267333    0.834000     0.004307
NI5374   NI        0.367333    0.234000    0.834000     0.004307
NI5375   NI        0.400667    0.267333    0.834000     0.004307
NI5376   NI        0.434000    0.234000    0.834000     0.004307
NI5377   NI        0.467333    0.267333    0.834000     0.004307
NI5378   NI        0.500667    0.234000    0.834000     0.004307
NI5379   NI        0.534000    0.267333    0.834000     0.004307
NI5380   NI        0.267333    0.334000    0.834000     0.004307
NI5381   NI        0.300667    0.300667    0.834000     0.004307
NI5382   NI        0.334000    0.334000    0.834000     0.004307
NI5383   NI        0.367333    0.300667    0.834000     0.004307
NI5384   NI        0.367333    0.334000    0.867333     0.004307
NI5385   NI        0.400667    0.300667    0.867333     0.004307
NI5386   NI        0.400667    0.334000    0.834000     0.004307
NI5387   NI        0.434000    0.300667    0.834000     0.004307
NI5388   NI        0.434000    0.334000    0.867333     0.004307
NI5389   NI        0.467333    0.300667    0.867333     0.004307
NI5390   NI        0.467333    0.334000    0.834000     0.004307
NI5391   NI        0.500667    0.300667    0.834000     0.004307
NI5392   NI        0.500667    0.334000    0.867333     0.004307
NI5393   NI        0.534000    0.334000    0.834000     0.004307
NI5394   NI        0.567333    0.300667    0.834000     0.004307
NI5395   NI        0.600667    0.334000    0.834000     0.004307
NI5396   NI        0.234000    0.367333    0.834000     0.004307
NI5397   NI        0.267333    0.400667    0.834000     0.004307
NI5398   NI        0.300667    0.367333    0.834000     0.004307
NI5399   NI        0.300667    0.400667    0.867333     0.004307
NI5400   NI        0.334000    0.367333    0.867333     0.004307
NI5401   NI        0.334000    0.400667    0.834000     0.004307
NI5402   NI        0.367333    0.367333    0.834000     0.004307
NI5403   NI        0.367333    0.400667    0.867333     0.004307
NI5404   NI        0.400667    0.367333    0.867333     0.004307
NI5405   NI        0.400667    0.400667    0.834000     0.004307
NI5406   NI        0.434000    0.367333    0.834000     0.004307
NI5407   NI        0.434000    0.400667    0.867333     0.004307
NI5408   NI        0.467333    0.367333    0.867333     0.004307
NI5409   NI        0.467333    0.400667    0.834000     0.004307
NI5410   NI        0.500667    0.367333    0.834000     0.004307
NI5411   NI        0.500667    0.400667    0.867333     0.004307
NI5412   NI        0.534000    0.367333    0.867333     0.004307
NI5413   NI        0.534000    0.400667    0.834000     0.004307
NI5414   NI        0.567333    0.367333    0.834000     0.004307
NI5415   NI        0.567333    0.400667    0.867333     0.004307
NI5416   NI        0.600667    0.400667    0.834000     0.004307
NI5417   NI        0.634000    0.367333    0.834000     0.004307
NI5418   NI        0.234000    0.434000    0.834000     0.004307
NI5419   NI        0.267333    0.467333    0.834000     0.004307
NI5420   NI        0.300667    0.434000    0.834000     0.004307
NI5421   NI        0.300667    0.467333    0.867333     0.004307
NI5422   NI        0.334000    0.434000    0.867333     0.004307
NI5423   NI        0.334000    0.467333    0.834000     0.004307
NI5424   NI        0.367333    0.434000    0.834000     0.004307
NI5425   NI        0.367333    0.467333    0.867333     0.004307
NI5426   NI        0.400667    0.434000    0.867333     0.004307
NI5427   NI        0.400667    0.467333    0.834000     0.004307
NI5428   NI        0.434000    0.434000    0.834000     0.004307
NI5429   NI        0.434000    0.467333    0.867333     0.004307
NI5430   NI        0.467333    0.434000    0.867333     0.004307
NI5431   NI        0.467333    0.467333    0.834000     0.004307
NI5432   NI        0.500667    0.434000    0.834000     0.004307
NI5433   NI        0.500667    0.467333    0.867333     0.004307
NI5434   NI        0.534000    0.434000    0.867333     0.004307
NI5435   NI        0.534000    0.467333    0.834000     0.004307
NI5436   NI        0.567333    0.434000    0.834000     0.004307
NI5437   NI        0.567333    0.467333    0.867333     0.004307
NI5438   NI        0.600667    0.467333    0.834000     0.004307
NI5439   NI        0.634000    0.434000    0.834000     0.004307
NI5440   NI        0.234000    0.500667    0.834000     0.004307
NI5441   NI        0.267333    0.534000    0.834000     0.004307
NI5442   NI        0.300667    0.500667    0.834000     0.004307
NI5443   NI        0.334000    0.500667    0.867333     0.004307
NI5444   NI        0.334000    0.534000    0.834000     0.004307
NI5445   NI        0.367333    0.500667    0.834000     0.004307
NI5446   NI        0.367333    0.534000    0.867333     0.004307
NI5447   NI        0.400667    0.500667    0.867333     0.004307
NI5448   NI        0.400667    0.534000    0.834000     0.004307
NI5449   NI        0.434000    0.500667    0.834000     0.004307
NI5450   NI        0.434000    0.534000    0.867333     0.004307
NI5451   NI        0.467333    0.500667    0.867333     0.004307
NI5452   NI        0.467333    0.534000    0.834000     0.004307
NI5453   NI        0.500667    0.500667    0.834000     0.004307
NI5454   NI        0.500667    0.534000    0.867333     0.004307
NI5455   NI        0.534000    0.500667    0.867333     0.004307
NI5456   NI        0.534000    0.534000    0.834000     0.004307
NI5457   NI        0.567333    0.500667    0.834000     0.004307
NI5458   NI        0.600667    0.534000    0.834000     0.004307
NI5459   NI        0.634000    0.500667    0.834000     0.004307
NI5460   NI        0.300667    0.567333    0.834000     0.004307
NI5461   NI        0.334000    0.600667    0.834000     0.004307
NI5462   NI        0.367333    0.567333    0.834000     0.004307
NI5463   NI        0.400667    0.567333    0.867333     0.004307
NI5464   NI        0.400667    0.600667    0.834000     0.004307
NI5465   NI        0.434000    0.567333    0.834000     0.004307
NI5466   NI        0.467333    0.567333    0.867333     0.004307
NI5467   NI        0.467333    0.600667    0.834000     0.004307
NI5468   NI        0.500667    0.567333    0.834000     0.004307
NI5469   NI        0.534000    0.600667    0.834000     0.004307
NI5470   NI        0.567333    0.567333    0.834000     0.004307
NI5471   NI        0.367333    0.634000    0.834000     0.004307
NI5472   NI        0.434000    0.634000    0.834000     0.004307
NI5473   NI        0.500667    0.634000    0.834000     0.004307
