data_00001
_audit_creation_method   'DISCUS'

_data_chemical_name_common 'Au.cell: Pearson 85'

_cell_length_a             57.1046
_cell_length_b             57.1046
_cell_length_c             57.1046
_cell_angle_alpha     90.0000
_cell_angle_beta      90.0000
_cell_angle_gamma     90.0000

_symmetry_space_group_name_H-M   'P1              '

loop_
_atom_site_label
_atom_site_symbol
_atom_site_fract_x
_atom_site_fract_y
_atom_site_fract_z
_atom_site_u_iso_or_equiv
NI1   NI        0.359166    0.273741    0.065590     0.004307
NI2   NI        0.433116    0.257481    0.061900     0.004307
NI3   NI        0.510693    0.266130    0.065817     0.004307
NI4   NI        0.286782    0.336351    0.068406     0.004307
NI5   NI        0.329034    0.322622    0.053693     0.004307
NI6   NI        0.355151    0.373851    0.052388     0.004307
NI7   NI        0.397437    0.302293    0.067828     0.004307
NI8   NI        0.432512    0.318814    0.038301     0.004307
NI9   NI        0.481181    0.297126    0.054759     0.004307
NI10   NI        0.477848    0.346018    0.044084     0.004307
NI11   NI        0.516874    0.317636    0.054214     0.004307
NI12   NI        0.554482    0.351795    0.019104     0.004307
NI13   NI        0.257210    0.363734    0.069865     0.004307
NI14   NI        0.292172    0.414974    0.059040     0.004307
NI15   NI        0.314642    0.372474    0.049271     0.004307
AU16   AU        0.394350    0.403907    0.052996     0.007504
NI17   NI        0.401641    0.356504    0.037993     0.004307
NI18   NI        0.438599    0.458272    0.005634     0.004307
NI19   NI        0.483080    0.344857    0.000714     0.004307
NI20   NI        0.438461    0.422784    0.041357     0.004307
NI21   NI        0.439006    0.376071    0.033917     0.004307
NI22   NI        0.517010    0.385028    0.010785     0.004307
AU23   AU        0.523943    0.392196    0.052918     0.007504
NI24   NI        0.569054    0.363004    0.058543     0.004307
AU25   AU        0.568378    0.413122    0.061746     0.007504
NI26   NI        0.612008    0.377674    0.073671     0.004307
NI27   NI        0.255341    0.438356    0.050119     0.004307
NI28   NI        0.306112    0.493323    0.040177     0.004307
NI29   NI        0.326110    0.454948    0.054335     0.004307
NI30   NI        0.354380    0.410536    0.022134     0.004307
NI31   NI        0.356222    0.482424    0.055633     0.004307
NI32   NI        0.388177    0.448746    0.042348     0.004307
NI33   NI        0.370752    0.499357    0.020747     0.004307
NI34   NI        0.470295    0.412919    0.002917     0.004307
NI35   NI        0.430817    0.471497    0.049061     0.004307
NI36   NI        0.480145    0.395964    0.041220     0.004307
NI37   NI        0.453468    0.504383    0.033101     0.004307
NI38   NI        0.560389    0.433909    0.016132     0.004307
NI39   NI        0.479803    0.448571    0.035467     0.004307
AU40   AU        0.533106    0.445692    0.052068     0.007504
NI41   NI        0.551670    0.485147    0.028022     0.004307
NI42   NI        0.621317    0.414562    0.056366     0.004307
NI43   NI        0.278089    0.557268    0.051060     0.004307
NI44   NI        0.317908    0.589538    0.062259     0.004307
NI45   NI        0.342720    0.530286    0.039297     0.004307
AU46   AU        0.387161    0.550862    0.056063     0.007504
NI47   NI        0.421998    0.530339    0.038276     0.004307
NI48   NI        0.500374    0.489573    0.028938     0.004307
NI49   NI        0.430045    0.579436    0.035841     0.004307
NI50   NI        0.515545    0.531722    0.048916     0.004307
NI51   NI        0.468682    0.551488    0.024020     0.004307
NI52   NI        0.575819    0.535003    0.057754     0.004307
NI53   NI        0.542652    0.573527    0.060642     0.004307
NI54   NI        0.615820    0.494254    0.054828     0.004307
AU55   AU        0.355492    0.576127    0.086864     0.007504
NI56   NI        0.334083    0.594692    0.024770     0.004307
NI57   NI        0.426284    0.641458    0.071366     0.004307
NI58   NI        0.403950    0.632778    0.035741     0.004307
NI59   NI        0.466685    0.581505    0.057753     0.004307
NI60   NI        0.522912    0.609057    0.043718     0.004307
NI61   NI        0.624080    0.561022    0.066966     0.004307
NI62   NI        0.279667    0.175805    0.139065     0.004307
NI63   NI        0.363983    0.197699    0.120492     0.004307
NI64   NI        0.407225    0.187504    0.100693     0.004307
NI65   NI        0.372204    0.173865    0.075296     0.004307
AU66   AU        0.437564    0.189997    0.132694     0.007504
NI67   NI        0.496658    0.152619    0.130447     0.004307
NI68   NI        0.486983    0.227919    0.065349     0.004307
NI69   NI        0.519177    0.198957    0.101275     0.004307
NI70   NI        0.559166    0.192000    0.098106     0.004307
NI71   NI        0.199419    0.260638    0.144463     0.004307
NI72   NI        0.248082    0.215142    0.136911     0.004307
NI73   NI        0.249018    0.289394    0.083273     0.004307
AU74   AU        0.274249    0.254882    0.116401     0.007504
NI75   NI        0.314870    0.224006    0.111787     0.004307
AU76   AU        0.326707    0.273102    0.104710     0.007504
NI77   NI        0.354418    0.212275    0.078839     0.004307
AU78   AU        0.360863    0.244514    0.112904     0.007504
AU79   AU        0.403635    0.226284    0.125752     0.007504
NI80   NI        0.390384    0.249737    0.076411     0.004307
NI81   NI        0.434027    0.230661    0.095903     0.004307
AU82   AU        0.436518    0.264815    0.127770     0.007504
AU83   AU        0.477494    0.226790    0.128839     0.007504
AU84   AU        0.471450    0.263520    0.095423     0.007504
NI85   NI        0.545043    0.237747    0.090514     0.004307
AU86   AU        0.511673    0.264456    0.122116     0.007504
AU87   AU        0.547798    0.231626    0.133421     0.007504
NI88   NI        0.546392    0.295639    0.075522     0.004307
AU89   AU        0.573292    0.264211    0.118770     0.007504
NI90   NI        0.621459    0.243343    0.126964     0.004307
NI91   NI        0.580089    0.261698    0.067883     0.004307
NI92   NI        0.671514    0.258288    0.133354     0.004307
NI93   NI        0.202057    0.283195    0.095669     0.004307
AU94   AU        0.209153    0.328468    0.127013     0.007504
AU95   AU        0.242387    0.290411    0.128991     0.007504
AU96   AU        0.259532    0.330500    0.105540     0.007504
AU97   AU        0.308178    0.310151    0.093360     0.007504
AU98   AU        0.297850    0.341822    0.125402     0.007504
AU99   AU        0.332976    0.317983    0.131717     0.007504
AU100   AU        0.335399    0.348683    0.092070     0.007504
AU101   AU        0.360159    0.307357    0.093777     0.007504
AU102   AU        0.375524    0.340484    0.124517     0.007504
AU103   AU        0.402089    0.294495    0.118915     0.007504
AU104   AU        0.386670    0.349162    0.080090     0.007504
AU105   AU        0.438238    0.300030    0.089126     0.007504
AU106   AU        0.426651    0.338321    0.124313     0.007504
AU107   AU        0.469947    0.302974    0.126642     0.007504
AU108   AU        0.485692    0.338374    0.084348     0.007504
AU109   AU        0.509311    0.301824    0.097450     0.007504
AU110   AU        0.503121    0.341293    0.128112     0.007504
AU111   AU        0.541704    0.306193    0.125843     0.007504
AU112   AU        0.536924    0.342538    0.094275     0.007504
NI113   NI        0.587369    0.301483    0.096056     0.004307
AU114   AU        0.574514    0.341901    0.131004     0.007504
NI115   NI        0.629560    0.287805    0.127736     0.004307
NI116   NI        0.617549    0.341844    0.097057     0.004307
AU117   AU        0.663415    0.321294    0.137841     0.007504
NI118   NI        0.701778    0.297488    0.126161     0.004307
NI119   NI        0.144395    0.408599    0.130196     0.004307
AU120   AU        0.181120    0.366222    0.129300     0.007504
NI121   NI        0.213097    0.398726    0.070489     0.004307
NI122   NI        0.218842    0.363875    0.095349     0.004307
AU123   AU        0.217012    0.405898    0.121916     0.007504
AU124   AU        0.256857    0.369199    0.125760     0.007504
AU125   AU        0.255033    0.404270    0.086743     0.007504
AU126   AU        0.294301    0.375114    0.096805     0.007504
AU127   AU        0.305548    0.407795    0.131616     0.007504
AU128   AU        0.335037    0.371092    0.131840     0.007504
AU129   AU        0.330234    0.401090    0.087738     0.007504
AU130   AU        0.369744    0.384985    0.097065     0.007504
AU131   AU        0.355204    0.416713    0.127429     0.007504
AU132   AU        0.414500    0.381140    0.112990     0.007504
AU133   AU        0.402234    0.422913    0.099746     0.007504
AU134   AU        0.437368    0.348978    0.079255     0.007504
AU135   AU        0.445730    0.413261    0.125210     0.007504
AU136   AU        0.464277    0.369007    0.117007     0.007504
AU137   AU        0.451626    0.394412    0.080320     0.007504
AU138   AU        0.501059    0.378764    0.090364     0.007504
AU139   AU        0.489562    0.415103    0.119180     0.007504
AU140   AU        0.534891    0.382506    0.126441     0.007504
AU141   AU        0.533917    0.416245    0.095683     0.007504
AU142   AU        0.570509    0.380583    0.099991     0.007504
AU143   AU        0.569447    0.420175    0.131283     0.007504
AU144   AU        0.611817    0.379501    0.129551     0.007504
AU145   AU        0.603813    0.415288    0.095149     0.007504
NI146   NI        0.647381    0.380035    0.098592     0.004307
AU147   AU        0.645149    0.416933    0.126144     0.007504
NI148   NI        0.698234    0.386013    0.111822     0.004307
NI149   NI        0.722323    0.337472    0.095388     0.004307
NI150   NI        0.715587    0.430764    0.114841     0.004307
NI151   NI        0.124977    0.463584    0.125689     0.004307
AU152   AU        0.186022    0.442353    0.126178     0.007504
NI153   NI        0.186001    0.475406    0.085735     0.004307
NI154   NI        0.215902    0.440789    0.085371     0.004307
AU155   AU        0.216604    0.480981    0.118402     0.007504
AU156   AU        0.245849    0.446166    0.116043     0.007504
NI157   NI        0.241148    0.478744    0.075166     0.004307
AU158   AU        0.283956    0.463683    0.073376     0.007504
AU159   AU        0.284794    0.485391    0.110972     0.007504
AU160   AU        0.319585    0.445213    0.102575     0.007504
AU161   AU        0.321458    0.501369    0.077834     0.007504
AU162   AU        0.362090    0.436193    0.081655     0.007504
AU163   AU        0.354318    0.483145    0.100116     0.007504
AU164   AU        0.401541    0.466749    0.092275     0.007504
AU165   AU        0.397836    0.502160    0.059428     0.007504
AU166   AU        0.446137    0.445166    0.083932     0.007504
AU167   AU        0.443644    0.495975    0.083658     0.007504
AU168   AU        0.474360    0.461544    0.115710     0.007504
AU169   AU        0.483857    0.479526    0.069878     0.007504
AU170   AU        0.491752    0.426803    0.070069     0.007504
NI171   NI        0.514275    0.462984    0.102323     0.004307
AU172   AU        0.558629    0.458192    0.098614     0.007504
AU173   AU        0.534131    0.490588    0.069618     0.007504
AU174   AU        0.599436    0.453934    0.071758     0.007504
AU175   AU        0.585187    0.495407    0.129875     0.007504
AU176   AU        0.607217    0.453667    0.123447     0.007504
AU177   AU        0.628353    0.487529    0.103734     0.007504
AU178   AU        0.644504    0.444600    0.087321     0.007504
NI179   NI        0.674073    0.484111    0.095262     0.004307
AU180   AU        0.675051    0.456628    0.132535     0.007504
NI181   NI        0.702916    0.515974    0.076458     0.004307
NI182   NI        0.713450    0.479988    0.126883     0.004307
NI183   NI        0.172737    0.497753    0.130000     0.004307
NI184   NI        0.223706    0.516678    0.066913     0.004307
NI185   NI        0.201206    0.523866    0.107593     0.004307
AU186   AU        0.247062    0.518796    0.108836     0.007504
NI187   NI        0.235495    0.560068    0.090073     0.004307
AU188   AU        0.277986    0.518907    0.074577     0.007504
AU189   AU        0.273433    0.555362    0.120500     0.007504
AU190   AU        0.311143    0.521340    0.116425     0.007504
AU191   AU        0.310445    0.554711    0.086897     0.007504
AU192   AU        0.354725    0.531499    0.087226     0.007504
AU193   AU        0.360563    0.571996    0.140091     0.007504
AU194   AU        0.399086    0.513874    0.106218     0.007504
AU195   AU        0.390799    0.562958    0.108438     0.007504
AU196   AU        0.430686    0.547757    0.083017     0.007504
AU197   AU        0.436472    0.573322    0.125223     0.007504
AU198   AU        0.502363    0.512635    0.102172     0.007504
AU199   AU        0.474453    0.532424    0.064218     0.007504
AU200   AU        0.504049    0.564086    0.090538     0.007504
AU201   AU        0.468645    0.547568    0.112759     0.007504
AU202   AU        0.541768    0.502200    0.120524     0.007504
AU203   AU        0.540653    0.536770    0.090591     0.007504
AU204   AU        0.578360    0.495574    0.085816     0.007504
AU205   AU        0.570003    0.542542    0.121719     0.007504
AU206   AU        0.626051    0.527573    0.136643     0.007504
AU207   AU        0.607144    0.529940    0.092780     0.007504
NI208   NI        0.651508    0.539540    0.100222     0.004307
AU209   AU        0.651693    0.564111    0.145245     0.007504
AU210   AU        0.673831    0.512168    0.134373     0.007504
NI211   NI        0.213892    0.559302    0.130704     0.004307
NI212   NI        0.251639    0.667928    0.118207     0.004307
AU213   AU        0.246522    0.596870    0.126244     0.007504
NI214   NI        0.289199    0.671176    0.091011     0.004307
AU215   AU        0.280085    0.594119    0.086867     0.007504
AU216   AU        0.283409    0.631939    0.122716     0.007504
AU217   AU        0.321680    0.597902    0.113549     0.007504
NI218   NI        0.310323    0.631383    0.078681     0.004307
NI219   NI        0.378876    0.596924    0.051347     0.004307
AU220   AU        0.358968    0.620960    0.137650     0.007504
AU221   AU        0.397628    0.609419    0.123201     0.007504
NI222   NI        0.349935    0.632465    0.092666     0.004307
AU223   AU        0.420302    0.596471    0.081821     0.007504
AU224   AU        0.436221    0.626757    0.122164     0.007504
AU225   AU        0.468356    0.596261    0.097741     0.007504
NI226   NI        0.473439    0.637961    0.081897     0.004307
NI227   NI        0.507715    0.607369    0.083412     0.004307
AU228   AU        0.509723    0.628368    0.121167     0.007504
AU229   AU        0.541547    0.586657    0.115019     0.007504
NI230   NI        0.527212    0.646133    0.076869     0.004307
AU231   AU        0.583591    0.573925    0.088105     0.007504
AU232   AU        0.592097    0.612956    0.125035     0.007504
AU233   AU        0.612361    0.568794    0.126379     0.007504
NI234   NI        0.620097    0.606820    0.089525     0.004307
NI235   NI        0.658429    0.589255    0.098137     0.004307
NI236   NI        0.692494    0.631182    0.127170     0.004307
NI237   NI        0.211096    0.671495    0.151270     0.004307
NI238   NI        0.298469    0.707321    0.118740     0.004307
NI239   NI        0.327085    0.665958    0.121207     0.004307
NI240   NI        0.383817    0.660262    0.080331     0.004307
NI241   NI        0.365739    0.702853    0.125018     0.004307
AU242   AU        0.396165    0.658069    0.126126     0.007504
NI243   NI        0.333132    0.705393    0.087387     0.004307
NI244   NI        0.434933    0.670558    0.098157     0.004307
NI245   NI        0.439246    0.698881    0.130493     0.004307
AU246   AU        0.477275    0.667129    0.124262     0.007504
NI247   NI        0.484883    0.681784    0.069589     0.004307
NI248   NI        0.525051    0.672943    0.111907     0.004307
NI249   NI        0.480961    0.709536    0.103840     0.004307
NI250   NI        0.554535    0.625502    0.103314     0.004307
NI251   NI        0.593200    0.695431    0.133740     0.004307
NI252   NI        0.585696    0.657337    0.104614     0.004307
NI253   NI        0.402654    0.704544    0.100315     0.004307
NI254   NI        0.507887    0.718532    0.142595     0.004307
NI255   NI        0.264688    0.114307    0.224616     0.004307
NI256   NI        0.364980    0.120801    0.180374     0.004307
NI257   NI        0.414069    0.109776    0.170271     0.004307
NI258   NI        0.407778    0.150131    0.136887     0.004307
AU259   AU        0.444929    0.122668    0.207305     0.007504
NI260   NI        0.466263    0.083966    0.195123     0.004307
NI261   NI        0.465714    0.110315    0.161380     0.004307
NI262   NI        0.514138    0.119922    0.167090     0.004307
NI263   NI        0.604243    0.136399    0.195782     0.004307
NI264   NI        0.200070    0.182184    0.191376     0.004307
NI265   NI        0.246356    0.152914    0.208452     0.004307
NI266   NI        0.241131    0.181018    0.171914     0.004307
NI267   NI        0.290803    0.143094    0.176745     0.004307
AU268   AU        0.291241    0.191990    0.193379     0.007504
AU269   AU        0.330960    0.157607    0.190591     0.007504
AU270   AU        0.324655    0.190044    0.155853     0.007504
NI271   NI        0.363114    0.156533    0.148672     0.004307
AU272   AU        0.366171    0.190108    0.187472     0.007504
AU273   AU        0.400147    0.156007    0.182501     0.007504
AU274   AU        0.400780    0.194346    0.155476     0.007504
AU275   AU        0.444828    0.149893    0.162643     0.007504
AU276   AU        0.437799    0.189415    0.186327     0.007504
AU277   AU        0.476228    0.161432    0.200586     0.007504
AU278   AU        0.477701    0.189067    0.156530     0.007504
NI279   NI        0.554533    0.153859    0.131182     0.004307
AU280   AU        0.515197    0.191430    0.189383     0.007504
AU281   AU        0.557164    0.161412    0.191015     0.007504
AU282   AU        0.552960    0.195463    0.156343     0.007504
NI283   NI        0.593688    0.163595    0.153857     0.004307
AU284   AU        0.587972    0.197935    0.193670     0.007504
NI285   NI        0.633203    0.173970    0.185328     0.004307
NI286   NI        0.590767    0.206002    0.127096     0.004307
NI287   NI        0.670377    0.201663    0.193893     0.004307
NI288   NI        0.170262    0.247312    0.181981     0.004307
NI289   NI        0.174983    0.203388    0.220955     0.004307
NI290   NI        0.140619    0.271151    0.147378     0.004307
NI291   NI        0.216732    0.216463    0.170890     0.004307
AU292   AU        0.217274    0.260463    0.190371     0.007504
AU293   AU        0.255859    0.226990    0.190824     0.007504
AU294   AU        0.250666    0.261244    0.161361     0.007504
AU295   AU        0.288396    0.227384    0.153247     0.007504
AU296   AU        0.292250    0.263400    0.185853     0.007504
AU297   AU        0.326169    0.223768    0.186852     0.007504
AU298   AU        0.320776    0.255166    0.145187     0.007504
AU299   AU        0.364465    0.228659    0.154929     0.007504
NI300   NI        0.364639    0.261165    0.191998     0.004307
AU301   AU        0.401506    0.224846    0.189400     0.007504
AU302   AU        0.399423    0.261853    0.159652     0.007504
AU303   AU        0.439140    0.229722    0.159663     0.007504
AU304   AU        0.437473    0.263453    0.187976     0.007504
AU305   AU        0.477617    0.225664    0.192468     0.007504
AU306   AU        0.476660    0.264905    0.159437     0.007504
AU307   AU        0.510961    0.228587    0.158022     0.007504
AU308   AU        0.512348    0.264653    0.192329     0.007504
AU309   AU        0.548734    0.231159    0.192404     0.007504
AU310   AU        0.543892    0.270835    0.161401     0.007504
AU311   AU        0.581527    0.235771    0.163155     0.007504
AU312   AU        0.578208    0.272921    0.196473     0.007504
AU313   AU        0.616465    0.237921    0.205177     0.007504
AU314   AU        0.618750    0.260556    0.165347     0.007504
AU315   AU        0.627372    0.212473    0.163736     0.007504
NI316   NI        0.657242    0.243947    0.186192     0.004307
NI317   NI        0.721247    0.223047    0.211068     0.004307
NI318   NI        0.704291    0.277546    0.167208     0.004307
NI319   NI        0.728802    0.292905    0.199619     0.004307
NI320   NI        0.082309    0.336959    0.183681     0.004307
NI321   NI        0.166675    0.303831    0.144639     0.004307
AU322   AU        0.142697    0.332893    0.198661     0.007504
AU323   AU        0.177736    0.297826    0.194737     0.007504
AU324   AU        0.181234    0.337996    0.167768     0.007504
AU325   AU        0.217689    0.304758    0.166613     0.007504
AU326   AU        0.227612    0.339107    0.199016     0.007504
AU327   AU        0.255508    0.298126    0.189697     0.007504
AU328   AU        0.257351    0.333189    0.153627     0.007504
AU329   AU        0.286063    0.293367    0.146146     0.007504
NI330   NI        0.277764    0.342302    0.197181     0.004307
AU331   AU        0.330489    0.291045    0.172434     0.007504
NI332   NI        0.309814    0.330481    0.169767     0.004307
AU333   AU        0.362493    0.285746    0.137243     0.007504
NI334   NI        0.366234    0.316619    0.170913     0.004307
NI335   NI        0.402913    0.295104    0.200586     0.004307
NI336   NI        0.403052    0.339461    0.161983     0.004307
AU337   AU        0.428155    0.305362    0.160783     0.007504
NI338   NI        0.428738    0.347776    0.197127     0.004307
AU339   AU        0.466986    0.303096    0.189811     0.007504
AU340   AU        0.463184    0.342897    0.160038     0.007504
AU341   AU        0.508366    0.303386    0.158571     0.007504
AU342   AU        0.501334    0.341994    0.190463     0.007504
AU343   AU        0.543876    0.309355    0.193529     0.007504
AU344   AU        0.537559    0.345670    0.162611     0.007504
AU345   AU        0.586542    0.297104    0.152963     0.007504
AU346   AU        0.580969    0.339209    0.182725     0.007504
AU347   AU        0.618521    0.305809    0.190970     0.007504
AU348   AU        0.622470    0.333804    0.148804     0.007504
AU349   AU        0.661551    0.285469    0.175360     0.007504
AU350   AU        0.657980    0.334503    0.185846     0.007504
AU351   AU        0.700374    0.320183    0.172503     0.007504
NI352   NI        0.704711    0.352251    0.137306     0.004307
NI353   NI        0.743736    0.324966    0.145599     0.004307
NI354   NI        0.736707    0.344709    0.184105     0.004307
NI355   NI        0.776440    0.251778    0.195370     0.004307
NI356   NI        0.082974    0.418545    0.207276     0.004307
AU357   AU        0.113920    0.372794    0.205147     0.007504
NI358   NI        0.113232    0.406900    0.168935     0.004307
AU359   AU        0.146283    0.371479    0.167524     0.007504
AU360   AU        0.151751    0.407441    0.199797     0.007504
AU361   AU        0.187747    0.373305    0.197238     0.007504
AU362   AU        0.182836    0.405252    0.160191     0.007504
AU363   AU        0.220285    0.369473    0.160482     0.007504
AU364   AU        0.221757    0.407857    0.192157     0.007504
NI365   NI        0.250973    0.376907    0.193556     0.004307
AU366   AU        0.253793    0.410716    0.152796     0.007504
AU367   AU        0.288336    0.373751    0.164997     0.007504
NI368   NI        0.297440    0.421320    0.182911     0.004307
NI369   NI        0.342162    0.356302    0.180228     0.004307
NI370   NI        0.334449    0.398236    0.171433     0.004307
AU371   AU        0.379607    0.380033    0.151756     0.007504
NI372   NI        0.372456    0.418915    0.189322     0.004307
NI373   NI        0.397153    0.381222    0.197288     0.004307
AU374   AU        0.403244    0.422787    0.147835     0.007504
AU375   AU        0.431478    0.380333    0.158572     0.007504
AU376   AU        0.424383    0.416582    0.195283     0.007504
AU377   AU        0.460508    0.379862    0.193349     0.007504
NI378   NI        0.460332    0.420818    0.166061     0.004307
AU379   AU        0.495178    0.381669    0.157639     0.007504
NI380   NI        0.496095    0.417888    0.188249     0.004307
AU381   AU        0.531796    0.385766    0.187643     0.007504
NI382   NI        0.541736    0.429727    0.168188     0.004307
AU383   AU        0.573859    0.381853    0.161364     0.007504
NI384   NI        0.571261    0.416163    0.194530     0.004307
AU385   AU        0.620878    0.370458    0.177692     0.007504
AU386   AU        0.609757    0.415658    0.160876     0.007504
AU387   AU        0.655798    0.370395    0.145302     0.007504
AU388   AU        0.655244    0.404954    0.182434     0.007504
AU389   AU        0.694493    0.369238    0.182552     0.007504
AU390   AU        0.686784    0.413980    0.154398     0.007504
NI391   NI        0.731426    0.384102    0.147216     0.004307
AU392   AU        0.725213    0.410898    0.189414     0.007504
NI393   NI        0.791773    0.335333    0.176545     0.004307
NI394   NI        0.754275    0.422423    0.148261     0.004307
NI395   NI        0.765090    0.377615    0.183443     0.004307
NI396   NI        0.081695    0.520514    0.186276     0.004307
AU397   AU        0.119690    0.447259    0.202533     0.007504
NI398   NI        0.140502    0.486948    0.157277     0.004307
AU399   AU        0.152282    0.444638    0.166662     0.007504
AU400   AU        0.161821    0.475291    0.201627     0.007504
AU401   AU        0.189344    0.439741    0.196428     0.007504
AU402   AU        0.189162    0.475922    0.162592     0.007504
AU403   AU        0.218775    0.442381    0.156842     0.007504
AU404   AU        0.229852    0.473363    0.194510     0.007504
NI405   NI        0.259036    0.440535    0.191236     0.004307
AU406   AU        0.249473    0.484030    0.148698     0.007504
AU407   AU        0.285082    0.450942    0.148408     0.007504
NI408   NI        0.277736    0.482622    0.189313     0.004307
NI409   NI        0.322129    0.465949    0.185056     0.004307
AU410   AU        0.327000    0.480191    0.139073     0.007504
NI411   NI        0.359024    0.450635    0.158525     0.004307
NI412   NI        0.362637    0.496407    0.173864     0.004307
NI413   NI        0.400259    0.460346    0.183520     0.004307
NI414   NI        0.383886    0.477241    0.137975     0.004307
NI415   NI        0.432232    0.455463    0.129326     0.004307
NI416   NI        0.424051    0.491322    0.165876     0.004307
NI417   NI        0.456080    0.456835    0.189966     0.004307
NI418   NI        0.471643    0.484613    0.162046     0.004307
NI419   NI        0.504305    0.453051    0.152959     0.004307
NI420   NI        0.526659    0.471867    0.190996     0.004307
NI421   NI        0.549017    0.450798    0.218811     0.004307
NI422   NI        0.548857    0.465802    0.142740     0.004307
NI423   NI        0.586168    0.461029    0.165035     0.004307
NI424   NI        0.579672    0.477617    0.206668     0.004307
NI425   NI        0.610484    0.442744    0.201018     0.004307
AU426   AU        0.637005    0.486805    0.149548     0.007504
AU427   AU        0.647618    0.445477    0.167224     0.007504
AU428   AU        0.646606    0.478234    0.198538     0.007504
AU429   AU        0.687219    0.443553    0.193478     0.007504
AU430   AU        0.681285    0.486693    0.170541     0.007504
AU431   AU        0.716424    0.452801    0.162220     0.007504
AU432   AU        0.719054    0.485616    0.201211     0.007504
AU433   AU        0.754273    0.449651    0.193597     0.007504
NI434   NI        0.760566    0.476580    0.150593     0.004307
NI435   NI        0.804055    0.470619    0.208266     0.004307
NI436   NI        0.131480    0.508458    0.190486     0.004307
NI437   NI        0.130615    0.519745    0.134420     0.004307
AU438   AU        0.158009    0.540264    0.201403     0.007504
AU439   AU        0.200932    0.507676    0.197940     0.007504
NI440   NI        0.173443    0.524559    0.163082     0.004307
AU441   AU        0.214513    0.520750    0.149489     0.007504
AU442   AU        0.206570    0.555351    0.193799     0.007504
AU443   AU        0.247469    0.519278    0.189117     0.007504
AU444   AU        0.245562    0.558451    0.160945     0.007504
AU445   AU        0.276614    0.520227    0.152423     0.007504
AU446   AU        0.284984    0.556875    0.179324     0.007504
AU447   AU        0.318799    0.515407    0.173482     0.007504
AU448   AU        0.319870    0.554776    0.144091     0.007504
AU449   AU        0.354076    0.520072    0.136061     0.007504
NI450   NI        0.358757    0.540488    0.176932     0.004307
NI451   NI        0.392503    0.535949    0.205584     0.004307
NI452   NI        0.392485    0.520776    0.156034     0.004307
NI453   NI        0.445304    0.511706    0.125865     0.004307
NI454   NI        0.449282    0.551693    0.190872     0.004307
NI455   NI        0.466948    0.509910    0.195566     0.004307
NI456   NI        0.479742    0.529057    0.152927     0.004307
NI457   NI        0.510283    0.498199    0.150961     0.004307
NI458   NI        0.527192    0.567244    0.177958     0.004307
NI459   NI        0.521728    0.523452    0.186479     0.004307
AU460   AU        0.518161    0.545219    0.134707     0.007504
AU461   AU        0.559294    0.529282    0.162828     0.007504
NI462   NI        0.573587    0.550326    0.205880     0.004307
AU463   AU        0.606397    0.506992    0.177237     0.007504
AU464   AU        0.615305    0.556413    0.178742     0.007504
AU465   AU        0.652089    0.523626    0.176508     0.007504
AU466   AU        0.664272    0.574362    0.186730     0.007504
AU467   AU        0.678949    0.518072    0.210831     0.007504
AU468   AU        0.693947    0.547844    0.168144     0.007504
NI469   NI        0.722308    0.507365    0.160773     0.004307
NI470   NI        0.732466    0.535909    0.191645     0.004307
NI471   NI        0.766280    0.502625    0.188645     0.004307
NI472   NI        0.128922    0.600438    0.174733     0.004307
NI473   NI        0.172061    0.562211    0.123891     0.004307
NI474   NI        0.131496    0.635446    0.205326     0.004307
NI475   NI        0.169338    0.564498    0.166486     0.004307
NI476   NI        0.169909    0.606616    0.149182     0.004307
AU477   AU        0.212746    0.598059    0.163073     0.007504
AU478   AU        0.207485    0.632009    0.189799     0.007504
AU479   AU        0.252032    0.596314    0.183501     0.007504
AU480   AU        0.243452    0.635652    0.155284     0.007504
AU481   AU        0.290002    0.594053    0.148787     0.007504
AU482   AU        0.284612    0.633462    0.185667     0.007504
NI483   NI        0.319767    0.593313    0.183882     0.004307
AU484   AU        0.321136    0.633750    0.154593     0.007504
NI485   NI        0.399675    0.572449    0.162473     0.004307
AU486   AU        0.355220    0.628393    0.190353     0.007504
NI487   NI        0.367201    0.578252    0.202808     0.004307
AU488   AU        0.400701    0.626548    0.165924     0.007504
AU489   AU        0.435935    0.598455    0.163928     0.007504
AU490   AU        0.441154    0.633901    0.199074     0.007504
NI491   NI        0.479344    0.586386    0.182328     0.004307
AU492   AU        0.474485    0.630745    0.158388     0.007504
AU493   AU        0.495090    0.581741    0.136309     0.007504
AU494   AU        0.513671    0.628184    0.184718     0.007504
NI495   NI        0.550358    0.599210    0.188850     0.004307
AU496   AU        0.548652    0.626671    0.150861     0.007504
AU497   AU        0.570022    0.578672    0.157517     0.007504
AU498   AU        0.589383    0.633834    0.199248     0.007504
AU499   AU        0.628762    0.601418    0.192593     0.007504
NI500   NI        0.627508    0.659196    0.132616     0.004307
AU501   AU        0.635394    0.608293    0.142043     0.007504
AU502   AU        0.630678    0.642052    0.177941     0.007504
AU503   AU        0.710177    0.592121    0.184572     0.007504
NI504   NI        0.672065    0.619592    0.174273     0.004307
NI505   NI        0.729012    0.566087    0.143559     0.004307
NI506   NI        0.766889    0.604585    0.220599     0.004307
NI507   NI        0.771889    0.552121    0.183257     0.004307
NI508   NI        0.165203    0.636745    0.176352     0.004307
NI509   NI        0.193848    0.636865    0.128560     0.004307
NI510   NI        0.195043    0.678543    0.191793     0.004307
AU511   AU        0.247231    0.673819    0.188271     0.007504
NI512   NI        0.254495    0.708455    0.151458     0.004307
AU513   AU        0.288629    0.670452    0.153766     0.007504
AU514   AU        0.286716    0.707125    0.185582     0.007504
AU515   AU        0.321463    0.669409    0.189529     0.007504
AU516   AU        0.326677    0.705231    0.159321     0.007504
AU517   AU        0.358463    0.667161    0.156236     0.007504
AU518   AU        0.361747    0.696564    0.192712     0.007504
AU519   AU        0.396602    0.658553    0.194331     0.007504
AU520   AU        0.399170    0.696037    0.160398     0.007504
AU521   AU        0.435229    0.662437    0.158573     0.007504
AU522   AU        0.436043    0.686203    0.199257     0.007504
NI523   NI        0.481911    0.657273    0.192527     0.004307
AU524   AU        0.474715    0.692816    0.168987     0.007504
AU525   AU        0.511953    0.664449    0.153196     0.007504
AU526   AU        0.513400    0.699500    0.187331     0.007504
AU527   AU        0.550207    0.660747    0.181567     0.007504
AU528   AU        0.547558    0.697924    0.146331     0.007504
AU529   AU        0.591497    0.651755    0.153547     0.007504
AU530   AU        0.580441    0.699908    0.183661     0.007504
AU531   AU        0.617498    0.675738    0.208715     0.007504
NI532   NI        0.625665    0.692580    0.165954     0.004307
NI533   NI        0.666285    0.664699    0.151698     0.004307
AU534   AU        0.665352    0.660845    0.204054     0.007504
NI535   NI        0.703667    0.638439    0.197633     0.004307
NI536   NI        0.247628    0.720160    0.210925     0.004307
NI537   NI        0.306494    0.752107    0.165977     0.004307
NI538   NI        0.289399    0.767235    0.219591     0.004307
AU539   AU        0.325554    0.732055    0.201044     0.007504
NI540   NI        0.354572    0.746478    0.168764     0.004307
NI541   NI        0.365831    0.784482    0.184443     0.004307
NI542   NI        0.395576    0.722010    0.193448     0.004307
NI543   NI        0.396085    0.742161    0.136137     0.004307
AU544   AU        0.440020    0.727673    0.175855     0.007504
NI545   NI        0.415388    0.760591    0.176014     0.004307
AU546   AU        0.472683    0.714896    0.212593     0.007504
NI547   NI        0.458381    0.743044    0.134474     0.004307
AU548   AU        0.489125    0.742600    0.173205     0.007504
NI549   NI        0.499223    0.782685    0.200090     0.004307
AU550   AU        0.539475    0.733015    0.181903     0.007504
NI551   NI        0.574319    0.731388    0.147907     0.004307
NI552   NI        0.585240    0.766227    0.184344     0.004307
NI553   NI        0.626504    0.726626    0.200117     0.004307
NI554   NI        0.454516    0.779238    0.174999     0.004307
NI555   NI        0.453351    0.814296    0.217359     0.004307
NI556   NI        0.380069    0.042752    0.267915     0.004307
NI557   NI        0.428547    0.047411    0.267713     0.004307
NI558   NI        0.482062    0.062235    0.287382     0.004307
NI559   NI        0.211700    0.112807    0.303411     0.004307
NI560   NI        0.296576    0.111749    0.253431     0.004307
NI561   NI        0.228210    0.113362    0.202253     0.004307
NI562   NI        0.280065    0.076124    0.296591     0.004307
NI563   NI        0.327766    0.084105    0.245232     0.004307
NI564   NI        0.329666    0.118120    0.218292     0.004307
NI565   NI        0.365626    0.087835    0.221202     0.004307
AU566   AU        0.362262    0.116744    0.259829     0.007504
NI567   NI        0.398242    0.088126    0.259337     0.004307
AU568   AU        0.398940    0.116066    0.216653     0.007504
NI569   NI        0.428988    0.082057    0.223787     0.004307
AU570   AU        0.430962    0.116114    0.254490     0.007504
NI571   NI        0.476487    0.092841    0.244811     0.004307
AU572   AU        0.479027    0.134824    0.246547     0.007504
NI573   NI        0.504817    0.104206    0.213403     0.004307
AU574   AU        0.522399    0.115582    0.256543     0.007504
NI575   NI        0.562299    0.081005    0.254441     0.004307
AU576   AU        0.555607    0.121226    0.220706     0.007504
AU577   AU        0.563677    0.129093    0.268896     0.007504
NI578   NI        0.615122    0.089538    0.290006     0.004307
AU579   AU        0.610646    0.124259    0.255186     0.007504
NI580   NI        0.656142    0.112191    0.297218     0.004307
NI581   NI        0.139565    0.206335    0.257218     0.004307
NI582   NI        0.165777    0.166646    0.255765     0.004307
NI583   NI        0.211272    0.173722    0.231440     0.004307
NI584   NI        0.226051    0.124475    0.243649     0.004307
AU585   AU        0.229372    0.203309    0.264132     0.007504
AU586   AU        0.254047    0.160911    0.256752     0.007504
AU587   AU        0.257640    0.193005    0.225081     0.007504
AU588   AU        0.292954    0.151601    0.220094     0.007504
AU589   AU        0.293736    0.189175    0.252839     0.007504
AU590   AU        0.328566    0.153599    0.253847     0.007504
AU591   AU        0.329970    0.193176    0.223835     0.007504
AU592   AU        0.364036    0.152495    0.218912     0.007504
NI593   NI        0.373892    0.182289    0.247181     0.004307
AU594   AU        0.415880    0.160693    0.270805     0.007504
NI595   NI        0.400058    0.189296    0.215200     0.004307
AU596   AU        0.426590    0.157684    0.223560     0.007504
NI597   NI        0.421795    0.202595    0.254280     0.004307
AU598   AU        0.462703    0.178514    0.257053     0.007504
NI599   NI        0.491220    0.195252    0.225636     0.004307
AU600   AU        0.521202    0.155777    0.225889     0.007504
NI601   NI        0.507637    0.195346    0.267480     0.004307
AU602   AU        0.547935    0.171482    0.266923     0.007504
AU603   AU        0.551519    0.195121    0.224541     0.007504
AU604   AU        0.585594    0.160540    0.232825     0.007504
AU605   AU        0.584848    0.196975    0.257162     0.007504
AU606   AU        0.623356    0.170139    0.268414     0.007504
AU607   AU        0.622395    0.193948    0.223892     0.007504
NI608   NI        0.654933    0.148599    0.250765     0.004307
AU609   AU        0.657873    0.202117    0.249231     0.007504
NI610   NI        0.690757    0.153238    0.282173     0.004307
NI611   NI        0.691904    0.170921    0.238631     0.004307
NI612   NI        0.723015    0.184618    0.283148     0.004307
NI613   NI        0.069435    0.257370    0.261536     0.004307
NI614   NI        0.104643    0.227811    0.259428     0.004307
NI615   NI        0.095102    0.277748    0.214960     0.004307
NI616   NI        0.134853    0.240455    0.217498     0.004307
AU617   AU        0.146610    0.257240    0.263605     0.007504
AU618   AU        0.186402    0.225042    0.264385     0.007504
AU619   AU        0.179835    0.257124    0.226059     0.007504
AU620   AU        0.220899    0.224820    0.226332     0.007504
AU621   AU        0.221179    0.260364    0.260793     0.007504
NI622   NI        0.260924    0.230043    0.261342     0.004307
AU623   AU        0.256547    0.264022    0.223625     0.007504
AU624   AU        0.291716    0.230653    0.226184     0.007504
NI625   NI        0.292730    0.264844    0.261545     0.004307
NI626   NI        0.338382    0.252706    0.256401     0.004307
NI627   NI        0.330768    0.266590    0.218987     0.004307
NI628   NI        0.361911    0.221467    0.216626     0.004307
NI629   NI        0.365900    0.278151    0.273749     0.004307
NI630   NI        0.383680    0.222050    0.252337     0.004307
NI631   NI        0.379405    0.260829    0.234966     0.004307
NI632   NI        0.436973    0.229406    0.222946     0.004307
NI633   NI        0.444308    0.263313    0.250399     0.004307
NI634   NI        0.471959    0.226728    0.250711     0.004307
AU635   AU        0.476164    0.264749    0.221903     0.007504
AU636   AU        0.516210    0.232727    0.229415     0.007504
NI637   NI        0.507199    0.274000    0.254081     0.004307
AU638   AU        0.549152    0.225391    0.265777     0.007504
AU639   AU        0.545739    0.274839    0.233723     0.007504
AU640   AU        0.577681    0.237286    0.229035     0.007504
AU641   AU        0.581585    0.263459    0.270781     0.007504
AU642   AU        0.615721    0.228156    0.258306     0.007504
NI643   NI        0.601481    0.280355    0.231005     0.004307
AU644   AU        0.647697    0.251673    0.230925     0.007504
AU645   AU        0.667256    0.252175    0.268701     0.007504
AU646   AU        0.701580    0.218508    0.259569     0.007504
AU647   AU        0.697648    0.259196    0.228420     0.007504
NI648   NI        0.746092    0.240069    0.252705     0.004307
AU649   AU        0.717641    0.263161    0.274352     0.007504
NI650   NI        0.768033    0.224269    0.283187     0.004307
NI651   NI        0.801658    0.247527    0.309837     0.004307
NI652   NI        0.774327    0.268481    0.258165     0.004307
NI653   NI        0.062588    0.333501    0.259689     0.004307
AU654   AU        0.107340    0.290359    0.265108     0.007504
AU655   AU        0.102069    0.324476    0.227925     0.007504
AU656   AU        0.140012    0.288113    0.226351     0.007504
AU657   AU        0.141667    0.326956    0.255288     0.007504
AU658   AU        0.182172    0.295912    0.257601     0.007504
AU659   AU        0.183088    0.335214    0.227241     0.007504
AU660   AU        0.217093    0.295527    0.225275     0.007504
AU661   AU        0.219807    0.330817    0.263026     0.007504
NI662   NI        0.255215    0.292541    0.265406     0.004307
NI663   NI        0.260530    0.321230    0.232133     0.004307
NI664   NI        0.304569    0.303069    0.212451     0.004307
NI665   NI        0.296431    0.343675    0.271585     0.004307
NI666   NI        0.310483    0.306957    0.258188     0.004307
NI667   NI        0.326578    0.343116    0.231296     0.004307
NI668   NI        0.356343    0.308449    0.216769     0.004307
NI669   NI        0.372981    0.317916    0.255073     0.004307
NI670   NI        0.415753    0.296639    0.258458     0.004307
NI671   NI        0.382737    0.341573    0.201359     0.004307
NI672   NI        0.412224    0.339679    0.239187     0.004307
NI673   NI        0.453086    0.350937    0.268791     0.004307
NI674   NI        0.469760    0.301003    0.249522     0.004307
NI675   NI        0.464132    0.338096    0.222435     0.004307
AU676   AU        0.504731    0.304736    0.221121     0.007504
NI677   NI        0.499181    0.346452    0.253128     0.004307
NI678   NI        0.530637    0.317585    0.254625     0.004307
AU679   AU        0.537973    0.349766    0.223520     0.007504
AU680   AU        0.577153    0.316978    0.224798     0.007504
AU681   AU        0.569476    0.353926    0.261475     0.007504
AU682   AU        0.631562    0.287523    0.260843     0.007504
AU683   AU        0.614214    0.348621    0.216261     0.007504
AU684   AU        0.662404    0.296079    0.218798     0.007504
AU685   AU        0.653725    0.333334    0.250588     0.007504
AU686   AU        0.691796    0.301989    0.258045     0.007504
AU687   AU        0.693748    0.336071    0.221206     0.007504
NI688   NI        0.733549    0.291147    0.246476     0.004307
AU689   AU        0.723631    0.339218    0.262637     0.007504
AU690   AU        0.765683    0.322297    0.264596     0.007504
AU691   AU        0.772114    0.344300    0.217938     0.007504
NI692   NI        0.807100    0.352650    0.259122     0.004307
NI693   NI        0.075262    0.401731    0.259654     0.004307
NI694   NI        0.071126    0.363935    0.222210     0.004307
AU695   AU        0.087224    0.439686    0.250059     0.007504
AU696   AU        0.105772    0.363870    0.255680     0.007504
AU697   AU        0.119341    0.412052    0.236172     0.007504
AU698   AU        0.151581    0.370671    0.234063     0.007504
AU699   AU        0.159251    0.407508    0.269985     0.007504
AU700   AU        0.189614    0.367767    0.264612     0.007504
AU701   AU        0.188573    0.411072    0.232518     0.007504
NI702   NI        0.223729    0.372562    0.230708     0.004307
NI703   NI        0.223355    0.409448    0.257081     0.004307
NI704   NI        0.238939    0.373892    0.280277     0.004307
NI705   NI        0.277569    0.410995    0.218874     0.004307
NI706   NI        0.267741    0.367579    0.237627     0.004307
NI707   NI        0.273917    0.410821    0.259286     0.004307
NI708   NI        0.310972    0.378942    0.252022     0.004307
NI709   NI        0.306986    0.381263    0.203107     0.004307
NI710   NI        0.352427    0.382006    0.213572     0.004307
NI711   NI        0.347557    0.397254    0.266882     0.004307
NI712   NI        0.381634    0.366804    0.251444     0.004307
NI713   NI        0.378649    0.409139    0.236522     0.004307
AU714   AU        0.433092    0.383340    0.235395     0.007504
NI715   NI        0.418100    0.424470    0.249968     0.004307
NI716   NI        0.462762    0.406348    0.267218     0.004307
AU717   AU        0.464515    0.419421    0.223900     0.007504
AU718   AU        0.497417    0.381134    0.223071     0.007504
NI719   NI        0.502851    0.413583    0.253931     0.004307
NI720   NI        0.534380    0.383377    0.267889     0.004307
NI721   NI        0.535715    0.401250    0.227771     0.004307
AU722   AU        0.572948    0.377650    0.216454     0.007504
AU723   AU        0.584194    0.423155    0.284359     0.007504
NI724   NI        0.603450    0.378817    0.255930     0.004307
AU725   AU        0.617556    0.397761    0.218980     0.007504
AU726   AU        0.659082    0.372516    0.215528     0.007504
NI727   NI        0.652004    0.394868    0.252520     0.004307
AU728   AU        0.688720    0.370386    0.258272     0.007504
AU729   AU        0.690869    0.405218    0.219008     0.007504
AU730   AU        0.727327    0.371476    0.222217     0.007504
AU731   AU        0.723636    0.403490    0.257428     0.007504
AU732   AU        0.765908    0.371854    0.257975     0.007504
AU733   AU        0.759592    0.409654    0.223468     0.007504
NI734   NI        0.799352    0.383070    0.218464     0.004307
AU735   AU        0.791608    0.410999    0.263319     0.007504
NI736   NI        0.843912    0.417064    0.217544     0.004307
NI737   NI        0.076957    0.473573    0.214387     0.004307
NI738   NI        0.034807    0.382452    0.277037     0.004307
AU739   AU        0.095844    0.481226    0.257974     0.007504
AU740   AU        0.129286    0.446490    0.269987     0.007504
AU741   AU        0.129916    0.478127    0.231348     0.007504
AU742   AU        0.158665    0.442266    0.233988     0.007504
AU743   AU        0.164555    0.479318    0.268335     0.007504
NI744   NI        0.193153    0.443753    0.265088     0.004307
AU745   AU        0.200076    0.476855    0.234615     0.007504
NI746   NI        0.228644    0.443250    0.225041     0.004307
NI747   NI        0.240499    0.492237    0.278854     0.004307
NI748   NI        0.252956    0.442466    0.284441     0.004307
NI749   NI        0.265906    0.480786    0.229053     0.004307
NI750   NI        0.319008    0.436577    0.228627     0.004307
NI751   NI        0.287591    0.455301    0.258578     0.004307
NI752   NI        0.327699    0.453526    0.273151     0.004307
NI753   NI        0.313452    0.479193    0.222548     0.004307
NI754   NI        0.362202    0.455253    0.215935     0.004307
NI755   NI        0.358152    0.490217    0.252095     0.004307
NI756   NI        0.386288    0.456468    0.250062     0.004307
NI757   NI        0.389744    0.489617    0.220523     0.004307
AU758   AU        0.427997    0.457651    0.224317     0.007504
NI759   NI        0.413642    0.491874    0.261996     0.004307
NI760   NI        0.450951    0.447073    0.269909     0.004307
NI761   NI        0.468679    0.477862    0.239357     0.004307
NI762   NI        0.509706    0.455618    0.227904     0.004307
NI763   NI        0.504884    0.454577    0.270616     0.004307
NI764   NI        0.545469    0.435712    0.262228     0.004307
AU765   AU        0.540020    0.481614    0.252807     0.007504
NI766   NI        0.581318    0.412889    0.240293     0.004307
NI767   NI        0.584316    0.457900    0.254293     0.004307
NI768   NI        0.618309    0.427085    0.258558     0.004307
NI769   NI        0.613255    0.483055    0.236818     0.004307
AU770   AU        0.653202    0.435329    0.221195     0.007504
NI771   NI        0.652173    0.499452    0.250559     0.004307
AU772   AU        0.684040    0.430907    0.260587     0.007504
AU773   AU        0.682235    0.473167    0.235524     0.007504
AU774   AU        0.724427    0.444424    0.227365     0.007504
AU775   AU        0.728824    0.482140    0.257537     0.007504
AU776   AU        0.758492    0.439287    0.263005     0.007504
AU777   AU        0.763852    0.480518    0.232481     0.007504
NI778   NI        0.797365    0.432959    0.226878     0.004307
AU779   AU        0.803326    0.465000    0.259828     0.007504
NI780   NI        0.833778    0.432299    0.285775     0.004307
NI781   NI        0.076019    0.519710    0.256199     0.004307
AU782   AU        0.105962    0.517097    0.224106     0.007504
NI783   NI        0.081923    0.562844    0.250119     0.004307
AU784   AU        0.127380    0.518406    0.269631     0.007504
NI785   NI        0.116615    0.556385    0.193718     0.004307
AU786   AU        0.166217    0.514159    0.235059     0.007504
AU787   AU        0.135347    0.554753    0.239213     0.007504
NI788   NI        0.199321    0.511670    0.273990     0.004307
AU789   AU        0.182825    0.561076    0.240729     0.007504
AU790   AU        0.219122    0.523787    0.235864     0.007504
AU791   AU        0.232953    0.569465    0.260296     0.007504
NI792   NI        0.270320    0.534420    0.256622     0.004307
AU793   AU        0.251498    0.558124    0.215255     0.007504
NI794   NI        0.284726    0.522008    0.220522     0.004307
NI795   NI        0.282811    0.566653    0.283851     0.004307
AU796   AU        0.311618    0.502495    0.268708     0.007504
NI797   NI        0.325195    0.548426    0.205526     0.004307
NI798   NI        0.350060    0.506348    0.213691     0.004307
NI799   NI        0.350806    0.530957    0.275790     0.004307
NI800   NI        0.391667    0.533709    0.256893     0.004307
NI801   NI        0.390070    0.572094    0.239324     0.004307
NI802   NI        0.430580    0.510579    0.217791     0.004307
NI803   NI        0.436970    0.546975    0.265315     0.004307
NI804   NI        0.457321    0.511724    0.262969     0.004307
NI805   NI        0.473911    0.544484    0.228831     0.004307
NI806   NI        0.509968    0.510794    0.234166     0.004307
NI807   NI        0.510080    0.552447    0.263099     0.004307
NI808   NI        0.544941    0.530853    0.254056     0.004307
NI809   NI        0.534976    0.561733    0.220699     0.004307
NI810   NI        0.554804    0.509957    0.214014     0.004307
NI811   NI        0.575475    0.532829    0.290328     0.004307
NI812   NI        0.618801    0.522411    0.260672     0.004307
NI813   NI        0.589667    0.562130    0.262295     0.004307
AU814   AU        0.626534    0.524960    0.216250     0.007504
AU815   AU        0.658161    0.553014    0.260177     0.007504
AU816   AU        0.692580    0.517968    0.257678     0.007504
AU817   AU        0.702316    0.557853    0.220575     0.007504
AU818   AU        0.735351    0.521608    0.234553     0.007504
AU819   AU        0.718398    0.559252    0.267255     0.007504
AU820   AU        0.756344    0.524990    0.272980     0.007504
AU821   AU        0.752313    0.563257    0.227203     0.007504
NI822   NI        0.777012    0.526680    0.225024     0.004307
NI823   NI        0.788514    0.554870    0.258733     0.004307
NI824   NI        0.809835    0.505480    0.239602     0.004307
NI825   NI        0.111463    0.595137    0.225279     0.004307
AU826   AU        0.151058    0.600315    0.248717     0.007504
NI827   NI        0.117125    0.636114    0.252691     0.004307
AU828   AU        0.173591    0.593310    0.199757     0.007504
AU829   AU        0.150846    0.629664    0.280896     0.007504
AU830   AU        0.183772    0.601554    0.280796     0.007504
AU831   AU        0.188620    0.629396    0.235777     0.007504
AU832   AU        0.218703    0.594929    0.218353     0.007504
AU833   AU        0.223835    0.621034    0.260429     0.007504
NI834   NI        0.268322    0.599548    0.259856     0.004307
AU835   AU        0.248672    0.632252    0.218768     0.007504
AU836   AU        0.283021    0.595741    0.218573     0.007504
NI837   NI        0.298902    0.640220    0.265326     0.004307
NI838   NI        0.313589    0.602045    0.262678     0.004307
AU839   AU        0.317983    0.633407    0.223831     0.007504
NI840   NI        0.348956    0.563298    0.237707     0.004307
NI841   NI        0.358061    0.612267    0.243249     0.004307
NI842   NI        0.423387    0.598455    0.252555     0.004307
NI843   NI        0.399050    0.617184    0.219064     0.004307
NI844   NI        0.448490    0.587244    0.215887     0.004307
NI845   NI        0.444741    0.625232    0.276362     0.004307
NI846   NI        0.465103    0.578623    0.282025     0.004307
NI847   NI        0.472706    0.626095    0.231215     0.004307
NI848   NI        0.512025    0.608675    0.231394     0.004307
NI849   NI        0.491583    0.621532    0.278282     0.004307
NI850   NI        0.538456    0.582086    0.271699     0.004307
NI851   NI        0.552157    0.631095    0.223107     0.004307
NI852   NI        0.589090    0.595821    0.222954     0.004307
NI853   NI        0.577551    0.614247    0.270544     0.004307
AU854   AU        0.623683    0.590029    0.259537     0.007504
AU855   AU        0.633394    0.629838    0.226336     0.007504
AU856   AU        0.663630    0.590388    0.227283     0.007504
AU857   AU        0.648128    0.628378    0.275711     0.007504
AU858   AU        0.683754    0.595294    0.273671     0.007504
AU859   AU        0.684042    0.633372    0.240224     0.007504
AU860   AU        0.715603    0.597639    0.236365     0.007504
AU861   AU        0.721055    0.629337    0.276433     0.007504
AU862   AU        0.757142    0.595208    0.265256     0.007504
NI863   NI        0.738280    0.650747    0.219604     0.004307
NI864   NI        0.806847    0.568421    0.222128     0.004307
NI865   NI        0.141769    0.678500    0.272683     0.004307
NI866   NI        0.161751    0.668198    0.217528     0.004307
NI867   NI        0.163854    0.710765    0.210735     0.004307
AU868   AU        0.186254    0.655439    0.277206     0.007504
NI869   NI        0.174103    0.697849    0.251435     0.004307
AU870   AU        0.210471    0.666419    0.232999     0.007504
AU871   AU        0.215736    0.695367    0.279120     0.007504
AU872   AU        0.253479    0.660489    0.260867     0.007504
AU873   AU        0.251253    0.702147    0.252594     0.007504
AU874   AU        0.282734    0.670032    0.221977     0.007504
AU875   AU        0.297013    0.690624    0.269687     0.007504
NI876   NI        0.338084    0.648354    0.272453     0.004307
AU877   AU        0.329158    0.693715    0.232796     0.007504
AU878   AU        0.359652    0.660440    0.227677     0.007504
AU879   AU        0.367555    0.690292    0.269072     0.007504
NI880   NI        0.415442    0.663909    0.277444     0.004307
AU881   AU        0.401124    0.690633    0.230850     0.007504
NI882   NI        0.418663    0.649359    0.236343     0.004307
AU883   AU        0.444774    0.699297    0.250092     0.007504
NI884   NI        0.480415    0.661736    0.278265     0.004307
NI885   NI        0.468140    0.667743    0.235279     0.004307
AU886   AU        0.518547    0.662905    0.220940     0.007504
AU887   AU        0.501708    0.700214    0.249354     0.007504
NI888   NI        0.528919    0.657648    0.266647     0.004307
AU889   AU        0.542891    0.704918    0.220709     0.007504
AU890   AU        0.577303    0.678357    0.220721     0.007504
AU891   AU        0.566696    0.698468    0.260756     0.007504
AU892   AU        0.599944    0.662557    0.252745     0.007504
AU893   AU        0.615124    0.706577    0.243528     0.007504
AU894   AU        0.647593    0.669705    0.248265     0.007504
NI895   NI        0.644574    0.687832    0.287143     0.004307
AU896   AU        0.685603    0.663095    0.278509     0.007504
NI897   NI        0.695805    0.683141    0.241929     0.004307
NI898   NI        0.741575    0.674419    0.264224     0.004307
NI899   NI        0.723761    0.710132    0.272465     0.004307
NI900   NI        0.770320    0.640630    0.254837     0.004307
NI901   NI        0.145129    0.732352    0.282250     0.004307
NI902   NI        0.210686    0.720132    0.237919     0.004307
NI903   NI        0.201504    0.738931    0.274198     0.004307
AU904   AU        0.252368    0.736925    0.283374     0.007504
NI905   NI        0.250506    0.749889    0.244705     0.004307
AU906   AU        0.291883    0.721351    0.234500     0.007504
AU907   AU        0.296763    0.759402    0.271401     0.007504
AU908   AU        0.331842    0.724120    0.270761     0.007504
NI909   NI        0.346172    0.792455    0.225912     0.004307
AU910   AU        0.362803    0.721254    0.230655     0.007504
AU911   AU        0.350471    0.762270    0.260430     0.007504
AU912   AU        0.394803    0.731370    0.261286     0.007504
AU913   AU        0.383772    0.763778    0.224034     0.007504
AU914   AU        0.425576    0.735650    0.223292     0.007504
AU915   AU        0.440622    0.760627    0.269637     0.007504
AU916   AU        0.475718    0.736580    0.257548     0.007504
AU917   AU        0.465948    0.763487    0.223573     0.007504
AU918   AU        0.506107    0.739760    0.219465     0.007504
AU919   AU        0.509663    0.770959    0.258143     0.007504
AU920   AU        0.538744    0.737709    0.256370     0.007504
AU921   AU        0.542918    0.769243    0.216901     0.007504
AU922   AU        0.577223    0.731564    0.222703     0.007504
AU923   AU        0.574296    0.769861    0.257536     0.007504
NI924   NI        0.598506    0.738209    0.266787     0.004307
NI925   NI        0.611390    0.765280    0.224599     0.004307
NI926   NI        0.656339    0.724245    0.256770     0.004307
NI927   NI        0.633053    0.759379    0.269163     0.004307
NI928   NI        0.694785    0.730758    0.244198     0.004307
NI929   NI        0.231077    0.782176    0.270434     0.004307
NI930   NI        0.322842    0.796071    0.282296     0.004307
NI931   NI        0.380525    0.815763    0.206616     0.004307
NI932   NI        0.388144    0.827452    0.249811     0.004307
AU933   AU        0.396802    0.783602    0.264704     0.007504
NI934   NI        0.421565    0.787521    0.221035     0.004307
NI935   NI        0.430485    0.811919    0.263738     0.004307
AU936   AU        0.472969    0.798498    0.261136     0.007504
NI937   NI        0.507836    0.829188    0.253309     0.004307
NI938   NI        0.467497    0.849630    0.256076     0.004307
NI939   NI        0.542325    0.799185    0.255494     0.004307
NI940   NI        0.618775    0.800611    0.262107     0.004307
NI941   NI        0.317790    0.032889    0.398772     0.004307
NI942   NI        0.310133    0.039034    0.349165     0.004307
AU943   AU        0.360183    0.064263    0.338197     0.007504
NI944   NI        0.392782    0.066962    0.299614     0.004307
NI945   NI        0.433459    0.050538    0.352581     0.004307
NI946   NI        0.418031    0.030693    0.307918     0.004307
AU947   AU        0.494858    0.062575    0.338841     0.007504
NI948   NI        0.543339    0.053727    0.327091     0.004307
NI949   NI        0.590351    0.063650    0.335403     0.004307
NI950   NI        0.170037    0.134320    0.299497     0.004307
NI951   NI        0.209385    0.118209    0.344600     0.004307
NI952   NI        0.226084    0.089185    0.372839     0.004307
NI953   NI        0.250743    0.117752    0.289515     0.004307
NI954   NI        0.248283    0.092769    0.332406     0.004307
AU955   AU        0.292392    0.123109    0.328357     0.007504
AU956   AU        0.322174    0.081558    0.322463     0.007504
AU957   AU        0.323681    0.117110    0.290931     0.007504
NI958   NI        0.354224    0.079974    0.288181     0.004307
AU959   AU        0.364920    0.109772    0.321951     0.007504
AU960   AU        0.408549    0.086673    0.332579     0.007504
AU961   AU        0.400068    0.120745    0.294868     0.007504
AU962   AU        0.437725    0.089519    0.290256     0.007504
AU963   AU        0.438564    0.126538    0.329276     0.007504
AU964   AU        0.482003    0.098372    0.312451     0.007504
AU965   AU        0.458371    0.139947    0.290422     0.007504
AU966   AU        0.524383    0.082027    0.286244     0.007504
AU967   AU        0.497945    0.133208    0.336700     0.007504
AU968   AU        0.527070    0.098871    0.333545     0.007504
AU969   AU        0.534281    0.134333    0.302007     0.007504
AU970   AU        0.567387    0.094819    0.304683     0.007504
AU971   AU        0.573089    0.127698    0.339995     0.007504
NI972   NI        0.666710    0.090813    0.338475     0.004307
AU973   AU        0.606875    0.138367    0.301860     0.007504
AU974   AU        0.650377    0.131675    0.342766     0.007504
NI975   NI        0.700591    0.112160    0.317097     0.004307
NI976   NI        0.100538    0.203043    0.294302     0.004307
NI977   NI        0.136765    0.173903    0.297565     0.004307
AU978   AU        0.160654    0.190120    0.338036     0.007504
AU979   AU        0.204359    0.163533    0.326273     0.007504
AU980   AU        0.182756    0.183758    0.293046     0.007504
NI981   NI        0.212906    0.152422    0.274237     0.004307
AU982   AU        0.207059    0.207752    0.328875     0.007504
AU983   AU        0.247529    0.143131    0.328783     0.007504
AU984   AU        0.244740    0.181350    0.301565     0.007504
AU985   AU        0.284479    0.150524    0.285785     0.007504
AU986   AU        0.285762    0.172572    0.327248     0.007504
AU987   AU        0.335847    0.150762    0.325094     0.007504
AU988   AU        0.318703    0.177173    0.294902     0.007504
AU989   AU        0.367093    0.159245    0.284953     0.007504
NI990   NI        0.356331    0.195547    0.319789     0.004307
NI991   NI        0.398192    0.133528    0.337169     0.004307
NI992   NI        0.393092    0.198724    0.293156     0.004307
NI993   NI        0.437451    0.191323    0.291640     0.004307
NI994   NI        0.405665    0.201811    0.333549     0.004307
NI995   NI        0.460139    0.172021    0.331212     0.004307
NI996   NI        0.479077    0.213204    0.296965     0.004307
AU997   AU        0.497215    0.167889    0.308753     0.007504
AU998   AU        0.499035    0.195275    0.349241     0.007504
AU999   AU        0.537203    0.162351    0.344980     0.007504
AU1000   AU        0.536463    0.198833    0.313607     0.007504
AU1001   AU        0.573480    0.165334    0.309206     0.007504
AU1002   AU        0.574121    0.198897    0.345536     0.007504
AU1003   AU        0.612518    0.158353    0.345179     0.007504
AU1004   AU        0.613017    0.190233    0.313452     0.007504
AU1005   AU        0.648561    0.160596    0.310973     0.007504
AU1006   AU        0.650076    0.189265    0.345453     0.007504
NI1007   NI        0.684621    0.156278    0.338454     0.004307
AU1008   AU        0.688229    0.192460    0.313642     0.007504
NI1009   NI        0.724160    0.145456    0.319734     0.004307
AU1010   AU        0.728157    0.186915    0.341849     0.007504
NI1011   NI        0.763494    0.186627    0.307351     0.004307
AU1012   AU        0.085222    0.255900    0.346175     0.007504
AU1013   AU        0.120761    0.217856    0.334323     0.007504
AU1014   AU        0.112064    0.254228    0.299194     0.007504
AU1015   AU        0.153337    0.223341    0.301428     0.007504
AU1016   AU        0.135951    0.259511    0.337580     0.007504
AU1017   AU        0.176443    0.240304    0.343923     0.007504
AU1018   AU        0.182609    0.262467    0.296755     0.007504
NI1019   NI        0.230989    0.228800    0.300019     0.004307
AU1020   AU        0.217362    0.259187    0.332910     0.007504
NI1021   NI        0.251083    0.223098    0.336834     0.004307
NI1022   NI        0.258791    0.266097    0.302834     0.004307
NI1023   NI        0.295110    0.216811    0.289955     0.004307
NI1024   NI        0.296020    0.251209    0.335322     0.004307
NI1025   NI        0.338703    0.242471    0.328386     0.004307
NI1026   NI        0.317079    0.272979    0.299635     0.004307
NI1027   NI        0.347535    0.216779    0.280283     0.004307
NI1028   NI        0.355854    0.283754    0.320061     0.004307
NI1029   NI        0.378841    0.241840    0.312412     0.004307
NI1030   NI        0.401171    0.262260    0.285722     0.004307
NI1031   NI        0.435968    0.233469    0.281232     0.004307
AU1032   AU        0.428979    0.246344    0.321632     0.007504
NI1033   NI        0.454706    0.218096    0.348073     0.004307
NI1034   NI        0.469906    0.255964    0.287431     0.004307
NI1035   NI        0.507384    0.237529    0.279537     0.004307
NI1036   NI        0.487026    0.241145    0.329443     0.004307
NI1037   NI        0.541359    0.242438    0.316066     0.004307
NI1038   NI        0.533670    0.274425    0.285294     0.004307
AU1039   AU        0.582801    0.224233    0.298640     0.007504
AU1040   AU        0.570106    0.283509    0.314815     0.007504
AU1041   AU        0.613370    0.225891    0.338742     0.007504
AU1042   AU        0.623507    0.250567    0.294974     0.007504
AU1043   AU        0.646289    0.209796    0.295656     0.007504
AU1044   AU        0.652306    0.257669    0.335846     0.007504
AU1045   AU        0.689711    0.221970    0.348446     0.007504
AU1046   AU        0.685851    0.242452    0.305104     0.007504
AU1047   AU        0.727865    0.223444    0.304196     0.007504
AU1048   AU        0.722833    0.260886    0.332767     0.007504
AU1049   AU        0.765474    0.228404    0.339608     0.007504
AU1050   AU        0.759049    0.263027    0.302818     0.007504
NI1051   NI        0.807438    0.260401    0.354490     0.004307
NI1052   NI        0.021145    0.304859    0.341316     0.004307
NI1053   NI        0.027655    0.344157    0.308807     0.004307
NI1054   NI        0.071344    0.290221    0.294414     0.004307
AU1055   AU        0.069883    0.326991    0.327075     0.007504
AU1056   AU        0.109030    0.297483    0.328682     0.007504
AU1057   AU        0.107460    0.329478    0.294115     0.007504
AU1058   AU        0.145649    0.294244    0.296979     0.007504
AU1059   AU        0.144224    0.334663    0.331453     0.007504
AU1060   AU        0.183147    0.298859    0.332413     0.007504
AU1061   AU        0.179941    0.328297    0.293619     0.007504
AU1062   AU        0.218748    0.298298    0.298056     0.007504
NI1063   NI        0.225359    0.313705    0.340413     0.004307
NI1064   NI        0.259810    0.283800    0.345034     0.004307
NI1065   NI        0.255819    0.331626    0.298610     0.004307
NI1066   NI        0.285315    0.303190    0.293564     0.004307
NI1067   NI        0.293108    0.338785    0.325573     0.004307
NI1068   NI        0.314611    0.301692    0.337518     0.004307
NI1069   NI        0.343376    0.349714    0.276673     0.004307
NI1070   NI        0.336509    0.310934    0.294277     0.004307
AU1071   AU        0.372771    0.332065    0.317853     0.007504
AU1072   AU        0.412316    0.296107    0.316087     0.007504
AU1073   AU        0.409851    0.340390    0.284912     0.007504
NI1074   NI        0.448093    0.302191    0.287097     0.004307
NI1075   NI        0.443269    0.370872    0.332660     0.004307
AU1076   AU        0.464230    0.282677    0.319992     0.007504
NI1077   NI        0.480248    0.336673    0.308733     0.004307
NI1078   NI        0.497610    0.301978    0.287135     0.004307
AU1079   AU        0.503060    0.310759    0.343927     0.007504
NI1080   NI        0.550186    0.313033    0.350649     0.004307
NI1081   NI        0.565319    0.327567    0.303099     0.004307
NI1082   NI        0.571259    0.308211    0.267303     0.004307
NI1083   NI        0.594673    0.315153    0.342747     0.004307
NI1084   NI        0.620657    0.291029    0.319160     0.004307
NI1085   NI        0.610585    0.327766    0.263819     0.004307
AU1086   AU        0.660179    0.289808    0.296413     0.007504
NI1087   NI        0.659932    0.320817    0.335436     0.004307
AU1088   AU        0.690710    0.290045    0.329350     0.007504
AU1089   AU        0.683937    0.332893    0.294091     0.007504
AU1090   AU        0.726292    0.305536    0.296318     0.007504
AU1091   AU        0.711968    0.336033    0.334772     0.007504
AU1092   AU        0.753606    0.303471    0.335386     0.007504
AU1093   AU        0.751735    0.350950    0.303779     0.007504
NI1094   NI        0.793995    0.292726    0.286555     0.004307
AU1095   AU        0.786449    0.341955    0.335562     0.007504
NI1096   NI        0.793304    0.294250    0.327863     0.004307
NI1097   NI        0.814590    0.328136    0.297106     0.004307
NI1098   NI        0.043658    0.381085    0.329326     0.004307
NI1099   NI        0.043715    0.445415    0.272955     0.004307
AU1100   AU        0.075723    0.366556    0.299600     0.007504
AU1101   AU        0.075945    0.408348    0.324886     0.007504
AU1102   AU        0.115340    0.383629    0.327931     0.007504
AU1103   AU        0.108064    0.405036    0.285112     0.007504
AU1104   AU        0.143261    0.363923    0.287308     0.007504
NI1105   NI        0.160308    0.398896    0.319554     0.004307
NI1106   NI        0.181481    0.362416    0.320769     0.004307
NI1107   NI        0.210441    0.396580    0.302640     0.004307
NI1108   NI        0.218884    0.351889    0.309590     0.004307
NI1109   NI        0.232796    0.400144    0.347229     0.004307
NI1110   NI        0.248392    0.359705    0.339495     0.004307
NI1111   NI        0.262121    0.406008    0.313276     0.004307
NI1112   NI        0.288503    0.375955    0.298373     0.004307
NI1113   NI        0.324805    0.397013    0.345377     0.004307
NI1114   NI        0.332381    0.350478    0.324353     0.004307
NI1115   NI        0.305706    0.419335    0.288596     0.004307
NI1116   NI        0.359099    0.381948    0.314116     0.004307
NI1117   NI        0.360880    0.417459    0.354691     0.004307
NI1118   NI        0.398722    0.381289    0.324433     0.004307
NI1119   NI        0.385337    0.419470    0.278675     0.004307
NI1120   NI        0.422064    0.391552    0.283605     0.004307
NI1121   NI        0.466464    0.404178    0.334750     0.004307
AU1122   AU        0.481855    0.355525    0.355117     0.007504
NI1123   NI        0.483867    0.426100    0.303386     0.004307
NI1124   NI        0.529288    0.348733    0.298617     0.004307
NI1125   NI        0.506832    0.393296    0.332761     0.004307
NI1126   NI        0.524590    0.355741    0.340562     0.004307
NI1127   NI        0.573550    0.422516    0.328125     0.004307
AU1128   AU        0.560599    0.384377    0.301507     0.007504
NI1129   NI        0.568794    0.358068    0.335190     0.004307
NI1130   NI        0.607249    0.338883    0.302899     0.004307
AU1131   AU        0.605683    0.382882    0.321361     0.007504
NI1132   NI        0.641204    0.365886    0.288419     0.004307
AU1133   AU        0.644401    0.387841    0.354378     0.007504
AU1134   AU        0.693208    0.380780    0.337817     0.007504
NI1135   NI        0.679342    0.406129    0.294864     0.004307
AU1136   AU        0.716039    0.374657    0.299347     0.007504
AU1137   AU        0.727320    0.415030    0.342693     0.007504
AU1138   AU        0.745707    0.376355    0.341724     0.007504
AU1139   AU        0.757361    0.400811    0.296379     0.007504
AU1140   AU        0.794458    0.376486    0.297710     0.007504
AU1141   AU        0.785605    0.410273    0.338760     0.007504
NI1142   NI        0.826943    0.370216    0.328426     0.004307
NI1143   NI        0.835374    0.387238    0.292134     0.004307
NI1144   NI        0.039482    0.432887    0.311001     0.004307
NI1145   NI        0.040567    0.490008    0.277501     0.004307
AU1146   AU        0.084719    0.447565    0.296590     0.007504
AU1147   AU        0.056108    0.468151    0.338294     0.007504
AU1148   AU        0.126427    0.434300    0.321654     0.007504
AU1149   AU        0.122808    0.480440    0.299338     0.007504
NI1150   NI        0.169814    0.459235    0.310158     0.004307
NI1151   NI        0.142973    0.485045    0.336783     0.004307
NI1152   NI        0.193445    0.429242    0.334702     0.004307
NI1153   NI        0.166449    0.507611    0.305304     0.004307
NI1154   NI        0.211384    0.463198    0.297642     0.004307
NI1155   NI        0.206548    0.468411    0.342082     0.004307
NI1156   NI        0.236475    0.438572    0.326213     0.004307
NI1157   NI        0.252498    0.478200    0.320643     0.004307
NI1158   NI        0.281769    0.439520    0.324733     0.004307
NI1159   NI        0.285987    0.497617    0.364838     0.004307
NI1160   NI        0.324477    0.439878    0.326547     0.004307
NI1161   NI        0.301638    0.471558    0.305117     0.004307
NI1162   NI        0.351662    0.474664    0.302685     0.004307
NI1163   NI        0.368375    0.465103    0.348130     0.004307
NI1164   NI        0.366799    0.432817    0.315839     0.004307
NI1165   NI        0.379518    0.506727    0.291104     0.004307
NI1166   NI        0.401193    0.466773    0.299444     0.004307
NI1167   NI        0.426343    0.481161    0.335948     0.004307
NI1168   NI        0.473386    0.449787    0.337269     0.004307
NI1169   NI        0.467686    0.490406    0.295844     0.004307
AU1170   AU        0.529155    0.423735    0.300709     0.007504
AU1171   AU        0.506867    0.468938    0.313872     0.007504
AU1172   AU        0.552469    0.456913    0.335983     0.007504
NI1173   NI        0.544215    0.500754    0.292919     0.004307
NI1174   NI        0.563222    0.462008    0.292953     0.004307
NI1175   NI        0.578439    0.498204    0.328834     0.004307
NI1176   NI        0.605813    0.457268    0.308466     0.004307
NI1177   NI        0.639884    0.452745    0.282836     0.004307
NI1178   NI        0.640075    0.421635    0.320185     0.004307
AU1179   AU        0.654412    0.473312    0.323128     0.007504
AU1180   AU        0.685828    0.444131    0.332417     0.007504
AU1181   AU        0.691362    0.475530    0.291285     0.007504
AU1182   AU        0.719735    0.433234    0.298391     0.007504
AU1183   AU        0.720226    0.481213    0.333114     0.007504
AU1184   AU        0.759697    0.455010    0.344849     0.007504
AU1185   AU        0.747945    0.476077    0.294977     0.007504
AU1186   AU        0.789916    0.446041    0.304018     0.007504
AU1187   AU        0.812126    0.471230    0.340375     0.007504
NI1188   NI        0.825122    0.420904    0.328204     0.004307
NI1189   NI        0.835309    0.484429    0.288720     0.004307
NI1190   NI        0.049509    0.512643    0.327873     0.004307
NI1191   NI        0.016401    0.552307    0.334920     0.004307
AU1192   AU        0.081335    0.499360    0.302938     0.007504
AU1193   AU        0.085662    0.534506    0.340147     0.007504
AU1194   AU        0.094514    0.489031    0.344613     0.007504
AU1195   AU        0.091420    0.547425    0.292166     0.007504
AU1196   AU        0.122794    0.524028    0.313574     0.007504
AU1197   AU        0.162315    0.548930    0.335547     0.007504
NI1198   NI        0.181471    0.497617    0.357757     0.004307
NI1199   NI        0.191423    0.558416    0.294355     0.004307
NI1200   NI        0.212085    0.513246    0.318359     0.004307
NI1201   NI        0.227517    0.555127    0.331981     0.004307
NI1202   NI        0.254947    0.518038    0.341990     0.004307
NI1203   NI        0.247938    0.540600    0.295659     0.004307
NI1204   NI        0.284485    0.514981    0.301981     0.004307
NI1205   NI        0.294505    0.533364    0.346805     0.004307
NI1206   NI        0.322092    0.496452    0.329901     0.004307
NI1207   NI        0.349800    0.560475    0.314789     0.004307
NI1208   NI        0.316136    0.540357    0.302808     0.004307
NI1209   NI        0.336670    0.538511    0.348327     0.004307
NI1210   NI        0.374548    0.504738    0.334251     0.004307
NI1211   NI        0.397112    0.543700    0.302128     0.004307
NI1212   NI        0.428915    0.514143    0.303663     0.004307
NI1213   NI        0.445518    0.540259    0.347772     0.004307
NI1214   NI        0.480855    0.501859    0.340805     0.004307
AU1215   AU        0.467469    0.534459    0.303823     0.007504
AU1216   AU        0.503578    0.509536    0.279193     0.007504
AU1217   AU        0.497497    0.545506    0.343481     0.007504
AU1218   AU        0.528546    0.506047    0.339529     0.007504
AU1219   AU        0.531228    0.541524    0.303242     0.007504
NI1220   NI        0.590993    0.493871    0.279593     0.004307
AU1221   AU        0.575628    0.537981    0.344502     0.007504
NI1222   NI        0.619260    0.505123    0.313369     0.004307
AU1223   AU        0.610949    0.558644    0.311992     0.007504
NI1224   NI        0.656876    0.514693    0.294212     0.004307
NI1225   NI        0.654898    0.546967    0.329865     0.004307
NI1226   NI        0.688024    0.511840    0.330058     0.004307
NI1227   NI        0.687023    0.554736    0.301426     0.004307
AU1228   AU        0.716043    0.514076    0.296183     0.007504
AU1229   AU        0.725551    0.548177    0.333960     0.007504
AU1230   AU        0.754798    0.514388    0.318992     0.007504
AU1231   AU        0.756330    0.564478    0.303307     0.007504
AU1232   AU        0.790652    0.494940    0.288099     0.007504
AU1233   AU        0.774180    0.546774    0.342259     0.007504
AU1234   AU        0.806551    0.515287    0.325431     0.007504
NI1235   NI        0.822854    0.542833    0.289505     0.004307
NI1236   NI        0.064098    0.572373    0.323246     0.004307
AU1237   AU        0.107845    0.594519    0.283853     0.007504
NI1238   NI        0.081801    0.610162    0.325678     0.004307
AU1239   AU        0.116632    0.573941    0.325952     0.007504
NI1240   NI        0.108847    0.639577    0.295649     0.004307
AU1241   AU        0.146126    0.563358    0.288023     0.007504
AU1242   AU        0.136349    0.614481    0.319917     0.007504
NI1243   NI        0.192890    0.587321    0.331380     0.004307
AU1244   AU        0.180062    0.626677    0.319184     0.007504
NI1245   NI        0.227094    0.589915    0.301861     0.004307
NI1246   NI        0.228982    0.616494    0.336395     0.004307
NI1247   NI        0.273265    0.565178    0.330582     0.004307
NI1248   NI        0.267374    0.604860    0.309073     0.004307
NI1249   NI        0.317474    0.597613    0.305943     0.004307
NI1250   NI        0.301930    0.635137    0.338819     0.004307
NI1251   NI        0.312386    0.575092    0.341996     0.004307
NI1252   NI        0.340963    0.639085    0.312540     0.004307
NI1253   NI        0.379400    0.576484    0.280809     0.004307
NI1254   NI        0.366141    0.597471    0.331639     0.004307
NI1255   NI        0.409340    0.570081    0.334045     0.004307
NI1256   NI        0.376421    0.620161    0.297606     0.004307
NI1257   NI        0.421522    0.588450    0.296701     0.004307
AU1258   AU        0.437697    0.600295    0.343911     0.007504
NI1259   NI        0.466268    0.571485    0.327399     0.004307
NI1260   NI        0.464068    0.616122    0.312730     0.004307
AU1261   AU        0.505919    0.581329    0.306912     0.007504
AU1262   AU        0.511824    0.616361    0.341824     0.007504
AU1263   AU        0.540198    0.576876    0.346202     0.007504
AU1264   AU        0.536728    0.621276    0.300120     0.007504
AU1265   AU        0.566834    0.575008    0.311153     0.007504
AU1266   AU        0.568404    0.617095    0.339395     0.007504
NI1267   NI        0.634250    0.584448    0.342938     0.004307
AU1268   AU        0.604820    0.608050    0.304505     0.007504
NI1269   NI        0.649870    0.587083    0.303443     0.004307
AU1270   AU        0.644206    0.632897    0.325833     0.007504
NI1271   NI        0.691143    0.577570    0.350521     0.004307
AU1272   AU        0.687721    0.627748    0.314751     0.007504
AU1273   AU        0.720498    0.591251    0.307160     0.007504
AU1274   AU        0.715962    0.614000    0.352061     0.007504
AU1275   AU        0.753257    0.589695    0.347028     0.007504
AU1276   AU        0.761784    0.612255    0.307386     0.007504
NI1277   NI        0.800785    0.585323    0.286205     0.004307
NI1278   NI        0.832058    0.668158    0.382233     0.004307
NI1279   NI        0.836000    0.552534    0.331438     0.004307
NI1280   NI        0.112196    0.656772    0.342893     0.004307
NI1281   NI        0.125674    0.699688    0.304710     0.004307
AU1282   AU        0.149985    0.662360    0.311615     0.007504
AU1283   AU        0.143818    0.688741    0.346233     0.007504
NI1284   NI        0.190705    0.661896    0.342284     0.004307
AU1285   AU        0.175781    0.699854    0.303356     0.007504
AU1286   AU        0.223193    0.650166    0.301888     0.007504
AU1287   AU        0.219676    0.690510    0.333045     0.007504
NI1288   NI        0.263273    0.667516    0.345987     0.004307
AU1289   AU        0.254740    0.688914    0.304434     0.007504
NI1290   NI        0.273309    0.649193    0.309688     0.004307
NI1291   NI        0.303618    0.688025    0.341632     0.004307
NI1292   NI        0.339621    0.665845    0.350090     0.004307
AU1293   AU        0.333150    0.689015    0.306961     0.007504
NI1294   NI        0.376928    0.661207    0.319647     0.004307
NI1295   NI        0.373951    0.696715    0.339872     0.004307
NI1296   NI        0.413148    0.666900    0.336864     0.004307
NI1297   NI        0.400732    0.691523    0.306398     0.004307
NI1298   NI        0.416539    0.628798    0.315911     0.004307
NI1299   NI        0.446530    0.698667    0.332701     0.004307
NI1300   NI        0.480263    0.662940    0.331855     0.004307
AU1301   AU        0.481416    0.701556    0.295598     0.007504
NI1302   NI        0.511733    0.655300    0.306044     0.004307
AU1303   AU        0.517409    0.693911    0.337068     0.007504
AU1304   AU        0.541288    0.654286    0.341265     0.007504
AU1305   AU        0.528252    0.696046    0.291775     0.007504
AU1306   AU        0.568793    0.661028    0.293970     0.007504
AU1307   AU        0.566441    0.697758    0.329616     0.007504
AU1308   AU        0.592666    0.655664    0.331308     0.007504
AU1309   AU        0.599869    0.701372    0.289584     0.007504
AU1310   AU        0.617515    0.656644    0.294474     0.007504
AU1311   AU        0.630123    0.691492    0.328183     0.007504
AU1312   AU        0.676429    0.671943    0.321171     0.007504
AU1313   AU        0.688125    0.712455    0.296399     0.007504
AU1314   AU        0.726229    0.663766    0.309604     0.007504
AU1315   AU        0.716319    0.704990    0.335521     0.007504
AU1316   AU        0.754314    0.643679    0.346407     0.007504
NI1317   NI        0.754538    0.703073    0.299982     0.004307
NI1318   NI        0.136730    0.734318    0.328133     0.004307
AU1319   AU        0.178025    0.724407    0.348338     0.007504
NI1320   NI        0.202209    0.773771    0.306876     0.004307
AU1321   AU        0.215085    0.730002    0.316789     0.007504
NI1322   NI        0.208581    0.764986    0.349272     0.004307
AU1323   AU        0.259807    0.719712    0.345320     0.007504
AU1324   AU        0.251395    0.764179    0.317066     0.007504
AU1325   AU        0.296116    0.723865    0.304944     0.007504
AU1326   AU        0.292968    0.758465    0.344870     0.007504
AU1327   AU        0.333497    0.723192    0.341666     0.007504
AU1328   AU        0.328741    0.757403    0.307820     0.007504
AU1329   AU        0.366649    0.727790    0.303640     0.007504
AU1330   AU        0.368099    0.760741    0.340948     0.007504
AU1331   AU        0.406711    0.732892    0.335006     0.007504
AU1332   AU        0.402142    0.761983    0.302393     0.007504
AU1333   AU        0.433367    0.723469    0.293974     0.007504
AU1334   AU        0.444249    0.766124    0.335783     0.007504
AU1335   AU        0.483611    0.733110    0.335237     0.007504
AU1336   AU        0.479358    0.769528    0.299929     0.007504
AU1337   AU        0.511191    0.740973    0.295590     0.007504
AU1338   AU        0.514559    0.770841    0.337301     0.007504
AU1339   AU        0.537470    0.732503    0.335312     0.007504
AU1340   AU        0.544219    0.771077    0.295998     0.007504
AU1341   AU        0.565132    0.732516    0.295597     0.007504
AU1342   AU        0.568114    0.768542    0.333990     0.007504
AU1343   AU        0.600874    0.730581    0.332197     0.007504
AU1344   AU        0.598849    0.769348    0.301972     0.007504
AU1345   AU        0.636528    0.730348    0.306148     0.007504
AU1346   AU        0.636352    0.766646    0.331824     0.007504
AU1347   AU        0.675519    0.739104    0.339176     0.007504
NI1348   NI        0.667293    0.758932    0.294429     0.004307
NI1349   NI        0.710398    0.748577    0.315430     0.004307
NI1350   NI        0.246854    0.806942    0.335428     0.004307
AU1351   AU        0.288238    0.794597    0.309661     0.007504
NI1352   NI        0.275080    0.840702    0.326086     0.004307
AU1353   AU        0.329026    0.795153    0.342265     0.007504
NI1354   NI        0.327422    0.828495    0.309983     0.004307
AU1355   AU        0.364035    0.790697    0.302740     0.007504
AU1356   AU        0.364545    0.828690    0.335877     0.007504
AU1357   AU        0.402836    0.796520    0.335928     0.007504
AU1358   AU        0.398955    0.826345    0.297548     0.007504
AU1359   AU        0.440290    0.795630    0.304066     0.007504
AU1360   AU        0.436119    0.833826    0.334663     0.007504
AU1361   AU        0.476755    0.803474    0.335088     0.007504
NI1362   NI        0.474212    0.829636    0.298478     0.004307
AU1363   AU        0.515092    0.805977    0.300107     0.007504
NI1364   NI        0.510214    0.829486    0.338213     0.004307
AU1365   AU        0.548943    0.809836    0.343669     0.007504
NI1366   NI        0.545177    0.850210    0.320550     0.004307
AU1367   AU        0.566326    0.809011    0.297583     0.007504
NI1368   NI        0.633109    0.810917    0.305891     0.004307
AU1369   AU        0.596815    0.803370    0.335362     0.007504
NI1370   NI        0.261933    0.049152    0.376413     0.004307
NI1371   NI        0.273634    0.045746    0.428368     0.004307
AU1372   AU        0.331840    0.073495    0.375827     0.007504
AU1373   AU        0.358889    0.061170    0.412701     0.007504
NI1374   NI        0.407057    0.027926    0.405818     0.004307
AU1375   AU        0.391838    0.064602    0.377854     0.007504
NI1376   NI        0.446461    0.012069    0.361951     0.004307
AU1377   AU        0.427218    0.067545    0.411815     0.007504
NI1378   NI        0.485414    0.011926    0.395879     0.004307
AU1379   AU        0.469784    0.054352    0.385916     0.007504
AU1380   AU        0.514752    0.049093    0.409799     0.007504
AU1381   AU        0.531762    0.070664    0.368085     0.007504
NI1382   NI        0.626760    0.068353    0.371208     0.004307
AU1383   AU        0.611662    0.101543    0.335606     0.007504
NI1384   NI        0.162907    0.129519    0.405531     0.004307
NI1385   NI        0.199488    0.094822    0.404866     0.004307
NI1386   NI        0.145956    0.119785    0.363175     0.004307
NI1387   NI        0.228684    0.059651    0.405433     0.004307
AU1388   AU        0.229046    0.129055    0.405887     0.007504
AU1389   AU        0.264495    0.091176    0.404640     0.007504
AU1390   AU        0.261131    0.128087    0.367134     0.007504
AU1391   AU        0.289471    0.085790    0.360998     0.007504
AU1392   AU        0.298090    0.119434    0.400885     0.007504
AU1393   AU        0.314662    0.079421    0.425029     0.007504
AU1394   AU        0.326946    0.115518    0.357851     0.007504
AU1395   AU        0.375900    0.103103    0.368412     0.007504
AU1396   AU        0.348061    0.110955    0.405749     0.007504
AU1397   AU        0.390007    0.099319    0.416783     0.007504
AU1398   AU        0.420033    0.107739    0.376521     0.007504
AU1399   AU        0.457149    0.088221    0.351961     0.007504
NI1400   NI        0.420066    0.129623    0.425374     0.004307
AU1401   AU        0.457845    0.101003    0.405718     0.007504
AU1402   AU        0.457948    0.136686    0.367188     0.007504
AU1403   AU        0.495001    0.102101    0.372765     0.007504
AU1404   AU        0.507651    0.120722    0.415507     0.007504
AU1405   AU        0.546903    0.087989    0.412494     0.007504
AU1406   AU        0.538619    0.122884    0.375704     0.007504
AU1407   AU        0.581599    0.092680    0.376959     0.007504
AU1408   AU        0.583840    0.121807    0.417940     0.007504
AU1409   AU        0.621573    0.093818    0.417897     0.007504
AU1410   AU        0.613448    0.127337    0.377198     0.007504
AU1411   AU        0.656342    0.104263    0.383722     0.007504
AU1412   AU        0.654249    0.131685    0.426202     0.007504
NI1413   NI        0.664234    0.072419    0.430145     0.004307
NI1414   NI        0.695384    0.124528    0.367972     0.004307
NI1415   NI        0.724708    0.117304    0.405781     0.004307
NI1416   NI        0.121887    0.158819    0.410363     0.004307
NI1417   NI        0.122542    0.136206    0.449966     0.004307
NI1418   NI        0.106953    0.180662    0.362814     0.004307
AU1419   AU        0.153659    0.165964    0.375076     0.007504
AU1420   AU        0.153820    0.194640    0.414607     0.007504
AU1421   AU        0.192107    0.162245    0.408854     0.007504
AU1422   AU        0.192103    0.199896    0.372177     0.007504
AU1423   AU        0.223577    0.158305    0.367682     0.007504
AU1424   AU        0.230177    0.193233    0.402693     0.007504
AU1425   AU        0.267792    0.161079    0.400540     0.007504
AU1426   AU        0.260999    0.184774    0.362794     0.007504
AU1427   AU        0.301739    0.156479    0.365759     0.007504
NI1428   NI        0.304231    0.207587    0.379172     0.004307
NI1429   NI        0.317692    0.168956    0.415947     0.004307
NI1430   NI        0.320144    0.198544    0.337357     0.004307
NI1431   NI        0.341513    0.150031    0.384704     0.004307
NI1432   NI        0.386820    0.194861    0.404885     0.004307
AU1433   AU        0.385304    0.145766    0.395086     0.007504
NI1434   NI        0.364279    0.179336    0.360992     0.004307
AU1435   AU        0.415989    0.165537    0.358242     0.007504
NI1436   NI        0.427239    0.167103    0.401511     0.004307
NI1437   NI        0.468086    0.151028    0.405809     0.004307
AU1438   AU        0.459035    0.185369    0.377305     0.007504
AU1439   AU        0.499866    0.155893    0.378317     0.007504
NI1440   NI        0.488444    0.206367    0.399782     0.004307
AU1441   AU        0.544617    0.157749    0.417268     0.007504
AU1442   AU        0.536539    0.194811    0.382636     0.007504
AU1443   AU        0.574206    0.159983    0.377554     0.007504
NI1444   NI        0.576201    0.191573    0.408289     0.004307
AU1445   AU        0.613666    0.159749    0.414831     0.007504
AU1446   AU        0.614132    0.193374    0.376794     0.007504
AU1447   AU        0.649242    0.154186    0.380288     0.007504
AU1448   AU        0.652867    0.187616    0.407639     0.007504
AU1449   AU        0.691533    0.153975    0.404895     0.007504
AU1450   AU        0.688976    0.187154    0.373532     0.007504
NI1451   NI        0.728409    0.154282    0.372100     0.004307
AU1452   AU        0.728040    0.189974    0.407372     0.007504
NI1453   NI        0.765776    0.152518    0.401964     0.004307
AU1454   AU        0.765694    0.191281    0.374002     0.007504
NI1455   NI        0.802609    0.194849    0.410909     0.004307
NI1456   NI        0.042781    0.334188    0.366454     0.004307
NI1457   NI        0.073998    0.219400    0.367388     0.004307
AU1458   AU        0.081739    0.271135    0.407761     0.007504
NI1459   NI        0.111011    0.211457    0.402811     0.004307
AU1460   AU        0.117174    0.263638    0.383816     0.007504
AU1461   AU        0.145036    0.220212    0.378826     0.007504
AU1462   AU        0.154087    0.272349    0.409822     0.007504
AU1463   AU        0.183682    0.232730    0.409850     0.007504
NI1464   NI        0.191224    0.276710    0.377867     0.004307
NI1465   NI        0.229208    0.240875    0.377450     0.004307
NI1466   NI        0.195678    0.276262    0.432738     0.004307
NI1467   NI        0.269260    0.223006    0.411130     0.004307
AU1468   AU        0.276677    0.248832    0.374848     0.007504
NI1469   NI        0.318060    0.242825    0.401756     0.004307
AU1470   AU        0.285233    0.275005    0.418702     0.007504
NI1471   NI        0.337219    0.207117    0.407785     0.004307
AU1472   AU        0.344380    0.268687    0.365637     0.007504
NI1473   NI        0.372856    0.227507    0.358496     0.004307
NI1474   NI        0.332754    0.282706    0.404395     0.004307
AU1475   AU        0.368054    0.245241    0.407459     0.007504
AU1476   AU        0.392632    0.267667    0.347035     0.007504
AU1477   AU        0.419938    0.210444    0.378732     0.007504
NI1478   NI        0.410684    0.259898    0.390336     0.004307
NI1479   NI        0.456929    0.239867    0.391422     0.004307
NI1480   NI        0.480724    0.268548    0.363478     0.004307
NI1481   NI        0.513063    0.241249    0.374764     0.004307
NI1482   NI        0.479012    0.274531    0.415728     0.004307
NI1483   NI        0.560390    0.233247    0.384529     0.004307
AU1484   AU        0.521520    0.286799    0.385525     0.007504
NI1485   NI        0.573439    0.249417    0.345933     0.004307
AU1486   AU        0.581211    0.275512    0.419751     0.007504
NI1487   NI        0.603878    0.232953    0.387489     0.004307
NI1488   NI        0.621101    0.269888    0.370379     0.004307
AU1489   AU        0.651539    0.223896    0.371425     0.007504
AU1490   AU        0.655954    0.258961    0.409348     0.007504
AU1491   AU        0.690311    0.223512    0.404393     0.007504
AU1492   AU        0.689394    0.258165    0.371479     0.007504
AU1493   AU        0.727589    0.225031    0.371744     0.007504
AU1494   AU        0.723217    0.261249    0.405243     0.007504
AU1495   AU        0.762753    0.228209    0.403457     0.007504
AU1496   AU        0.755608    0.266477    0.370621     0.007504
NI1497   NI        0.805158    0.221291    0.377011     0.004307
AU1498   AU        0.791793    0.272814    0.407907     0.007504
NI1499   NI        0.859964    0.318285    0.373266     0.004307
NI1500   NI        0.047920    0.300733    0.411400     0.004307
NI1501   NI        0.041430    0.373883    0.373436     0.004307
AU1502   AU        0.068892    0.294557    0.362742     0.007504
AU1503   AU        0.073968    0.349410    0.399773     0.007504
AU1504   AU        0.101755    0.309160    0.402085     0.007504
AU1505   AU        0.104234    0.330434    0.363166     0.007504
AU1506   AU        0.143268    0.299512    0.368789     0.007504
AU1507   AU        0.140543    0.340985    0.395564     0.007504
NI1508   NI        0.174733    0.312493    0.410303     0.004307
NI1509   NI        0.177100    0.334476    0.369046     0.004307
NI1510   NI        0.210862    0.315005    0.385018     0.004307
NI1511   NI        0.195914    0.348954    0.440474     0.004307
NI1512   NI        0.245632    0.288256    0.395642     0.004307
NI1513   NI        0.258011    0.323647    0.376477     0.004307
NI1514   NI        0.299663    0.292939    0.373896     0.004307
AU1515   AU        0.292410    0.342567    0.401158     0.007504
NI1516   NI        0.308721    0.305819    0.429917     0.004307
NI1517   NI        0.321059    0.337427    0.366735     0.004307
NI1518   NI        0.355518    0.314431    0.359941     0.004307
NI1519   NI        0.342042    0.330450    0.408284     0.004307
NI1520   NI        0.381345    0.292854    0.390128     0.004307
AU1521   AU        0.400948    0.317062    0.357644     0.007504
AU1522   AU        0.435709    0.281713    0.361353     0.007504
NI1523   NI        0.397624    0.333515    0.401966     0.004307
AU1524   AU        0.474138    0.313159    0.382672     0.007504
AU1525   AU        0.447800    0.321261    0.335720     0.007504
NI1526   NI        0.522536    0.274657    0.334276     0.004307
AU1527   AU        0.496932    0.312515    0.420438     0.007504
AU1528   AU        0.552335    0.314457    0.414951     0.007504
AU1529   AU        0.518819    0.340531    0.385659     0.007504
NI1530   NI        0.571301    0.282596    0.374242     0.004307
NI1531   NI        0.594350    0.331432    0.399530     0.004307
NI1532   NI        0.624820    0.296301    0.417557     0.004307
NI1533   NI        0.620773    0.311886    0.373351     0.004307
NI1534   NI        0.658605    0.297039    0.376019     0.004307
NI1535   NI        0.645799    0.335633    0.401796     0.004307
NI1536   NI        0.687774    0.286692    0.407690     0.004307
AU1537   AU        0.675449    0.350390    0.367959     0.007504
AU1538   AU        0.716903    0.300588    0.369250     0.007504
AU1539   AU        0.711985    0.336012    0.401185     0.007504
AU1540   AU        0.750249    0.302768    0.407584     0.007504
AU1541   AU        0.750281    0.340830    0.373220     0.007504
AU1542   AU        0.787680    0.306816    0.371871     0.007504
AU1543   AU        0.786640    0.342192    0.411859     0.007504
NI1544   NI        0.819166    0.312863    0.414840     0.004307
NI1545   NI        0.825718    0.335395    0.357652     0.004307
NI1546   NI        0.031425    0.411220    0.404937     0.004307
NI1547   NI        0.013110    0.349886    0.403971     0.004307
NI1548   NI        0.007735    0.401005    0.348587     0.004307
AU1549   AU        0.083333    0.368595    0.353157     0.007504
AU1550   AU        0.071893    0.399763    0.395296     0.007504
AU1551   AU        0.113604    0.383424    0.390630     0.007504
AU1552   AU        0.104415    0.415320    0.361817     0.007504
NI1553   NI        0.147121    0.373514    0.356715     0.004307
NI1554   NI        0.149026    0.418683    0.390856     0.004307
NI1555   NI        0.187112    0.364079    0.394662     0.004307
NI1556   NI        0.180971    0.396419    0.362900     0.004307
NI1557   NI        0.211630    0.355980    0.360137     0.004307
AU1558   AU        0.236775    0.420314    0.384653     0.007504
AU1559   AU        0.257816    0.374204    0.387303     0.007504
AU1560   AU        0.279511    0.417056    0.362520     0.007504
NI1561   NI        0.289694    0.370051    0.357196     0.004307
AU1562   AU        0.267159    0.414632    0.416849     0.007504
AU1563   AU        0.303472    0.388780    0.397930     0.007504
NI1564   NI        0.353027    0.443826    0.392274     0.004307
NI1565   NI        0.342056    0.373968    0.378793     0.004307
NI1566   NI        0.348927    0.406193    0.416922     0.004307
NI1567   NI        0.384827    0.364654    0.360350     0.004307
NI1568   NI        0.414350    0.401407    0.363063     0.004307
AU1569   AU        0.440820    0.345949    0.378951     0.007504
NI1570   NI        0.421445    0.399512    0.413115     0.004307
AU1571   AU        0.478377    0.358273    0.407460     0.007504
AU1572   AU        0.461981    0.392755    0.377913     0.007504
AU1573   AU        0.512343    0.384488    0.381108     0.007504
AU1574   AU        0.493914    0.402716    0.418792     0.007504
NI1575   NI        0.536787    0.380597    0.421795     0.004307
AU1576   AU        0.540912    0.421329    0.365491     0.007504
NI1577   NI        0.556120    0.360504    0.376270     0.004307
AU1578   AU        0.570506    0.412362    0.398177     0.007504
NI1579   NI        0.610504    0.373764    0.392976     0.004307
NI1580   NI        0.601665    0.408391    0.365554     0.004307
NI1581   NI        0.627612    0.343254    0.347878     0.004307
AU1582   AU        0.643380    0.411259    0.399201     0.007504
NI1583   NI        0.676262    0.371092    0.406135     0.004307
AU1584   AU        0.686318    0.414601    0.372334     0.007504
AU1585   AU        0.718925    0.380146    0.380190     0.007504
NI1586   NI        0.726020    0.435008    0.416717     0.004307
AU1587   AU        0.757362    0.377164    0.413564     0.007504
AU1588   AU        0.759648    0.413096    0.380213     0.007504
AU1589   AU        0.787403    0.371532    0.370713     0.007504
AU1590   AU        0.803046    0.389793    0.409643     0.007504
NI1591   NI        0.835277    0.349755    0.397488     0.004307
NI1592   NI        0.827767    0.399807    0.368635     0.004307
NI1593   NI        0.880041    0.392906    0.408300     0.004307
NI1594   NI        0.014806    0.475734    0.307740     0.004307
NI1595   NI        0.017567    0.494732    0.402116     0.004307
AU1596   AU        0.043337    0.459958    0.426466     0.007504
NI1597   NI        0.028987    0.458448    0.372408     0.004307
AU1598   AU        0.050451    0.421581    0.364053     0.007504
AU1599   AU        0.074227    0.461964    0.389476     0.007504
NI1600   NI        0.103734    0.432374    0.403794     0.004307
NI1601   NI        0.116933    0.457588    0.364646     0.004307
NI1602   NI        0.153989    0.440513    0.353704     0.004307
NI1603   NI        0.150823    0.467360    0.390572     0.004307
NI1604   NI        0.196046    0.411728    0.409253     0.004307
NI1605   NI        0.194801    0.480999    0.395725     0.004307
NI1606   NI        0.197722    0.439008    0.375884     0.004307
AU1607   AU        0.234543    0.501857    0.387560     0.007504
AU1608   AU        0.236315    0.461838    0.411078     0.007504
NI1609   NI        0.250196    0.463914    0.367599     0.004307
NI1610   NI        0.300936    0.457432    0.358565     0.004307
NI1611   NI        0.282825    0.459982    0.399601     0.004307
NI1612   NI        0.312222    0.434082    0.422472     0.004307
NI1613   NI        0.335786    0.487697    0.370770     0.004307
NI1614   NI        0.395299    0.436175    0.388071     0.004307
NI1615   NI        0.341955    0.479268    0.418136     0.004307
NI1616   NI        0.385495    0.454540    0.427691     0.004307
NI1617   NI        0.387764    0.483903    0.382818     0.004307
NI1618   NI        0.432534    0.440312    0.347808     0.004307
NI1619   NI        0.421136    0.475792    0.411795     0.004307
NI1620   NI        0.460413    0.440320    0.409219     0.004307
AU1621   AU        0.460353    0.473130    0.373010     0.007504
AU1622   AU        0.493126    0.427229    0.377123     0.007504
AU1623   AU        0.499581    0.466547    0.410260     0.007504
AU1624   AU        0.547820    0.455668    0.400185     0.007504
AU1625   AU        0.512093    0.464597    0.364877     0.007504
NI1626   NI        0.590788    0.457025    0.360804     0.004307
AU1627   AU        0.588897    0.488055    0.405691     0.007504
AU1628   AU        0.608673    0.443418    0.398640     0.007504
AU1629   AU        0.605255    0.499148    0.366005     0.007504
AU1630   AU        0.646179    0.444247    0.363139     0.007504
AU1631   AU        0.642001    0.478357    0.399423     0.007504
AU1632   AU        0.679150    0.448584    0.407021     0.007504
AU1633   AU        0.682691    0.477120    0.368037     0.007504
AU1634   AU        0.717768    0.451034    0.371814     0.007504
AU1635   AU        0.712358    0.485162    0.407699     0.007504
AU1636   AU        0.760449    0.461531    0.393101     0.007504
AU1637   AU        0.770538    0.502467    0.362868     0.007504
AU1638   AU        0.797767    0.438340    0.372334     0.007504
AU1639   AU        0.798138    0.488389    0.397745     0.007504
NI1640   NI        0.838612    0.420439    0.409176     0.004307
NI1641   NI        0.840915    0.449228    0.376898     0.004307
NI1642   NI        0.849879    0.455313    0.329876     0.004307
NI1643   NI        0.872671    0.452465    0.407645     0.004307
NI1644   NI        0.040435    0.533901    0.407519     0.004307
NI1645   NI        0.048054    0.550059    0.366427     0.004307
AU1646   AU        0.060659    0.506807    0.374864     0.007504
AU1647   AU        0.086066    0.548346    0.404551     0.007504
AU1648   AU        0.107315    0.502030    0.389530     0.007504
AU1649   AU        0.123555    0.547954    0.371354     0.007504
NI1650   NI        0.151292    0.514038    0.394306     0.004307
AU1651   AU        0.160486    0.562855    0.402017     0.007504
NI1652   NI        0.193082    0.521998    0.399745     0.004307
NI1653   NI        0.194017    0.566584    0.370250     0.004307
NI1654   NI        0.211088    0.526806    0.359380     0.004307
NI1655   NI        0.235326    0.547546    0.411342     0.004307
AU1656   AU        0.265347    0.496861    0.425228     0.007504
NI1657   NI        0.261404    0.541068    0.380156     0.004307
NI1658   NI        0.318915    0.533524    0.389977     0.004307
NI1659   NI        0.278610    0.536009    0.416914     0.004307
NI1660   NI        0.310506    0.503925    0.436972     0.004307
NI1661   NI        0.323477    0.572983    0.402698     0.004307
NI1662   NI        0.360932    0.519228    0.389702     0.004307
AU1663   AU        0.377355    0.555231    0.404360     0.007504
AU1664   AU        0.386068    0.503561    0.429353     0.007504
NI1665   NI        0.394570    0.531788    0.364282     0.004307
NI1666   NI        0.424942    0.505916    0.379504     0.004307
AU1667   AU        0.424276    0.533018    0.415954     0.007504
AU1668   AU        0.464684    0.504556    0.411922     0.007504
AU1669   AU        0.468082    0.551030    0.391530     0.007504
NI1670   NI        0.498726    0.505191    0.381486     0.004307
NI1671   NI        0.508761    0.541768    0.408281     0.004307
AU1672   AU        0.545848    0.507766    0.417038     0.007504
AU1673   AU        0.537022    0.541685    0.378493     0.007504
AU1674   AU        0.557452    0.494617    0.372617     0.007504
AU1675   AU        0.580528    0.536306    0.390949     0.007504
AU1676   AU        0.624157    0.519620    0.402998     0.007504
AU1677   AU        0.619820    0.540285    0.357295     0.007504
AU1678   AU        0.654700    0.509633    0.362517     0.007504
NI1679   NI        0.649812    0.552674    0.412536     0.004307
AU1680   AU        0.677703    0.512906    0.400817     0.007504
NI1681   NI        0.661408    0.553228    0.369878     0.004307
AU1682   AU        0.716783    0.514728    0.368317     0.007504
AU1683   AU        0.718728    0.538967    0.415125     0.007504
AU1684   AU        0.754888    0.509960    0.405267     0.007504
AU1685   AU        0.750350    0.550266    0.378345     0.007504
AU1686   AU        0.813156    0.528525    0.369753     0.007504
AU1687   AU        0.788319    0.537200    0.410537     0.007504
NI1688   NI        0.836107    0.526412    0.418636     0.004307
NI1689   NI        0.845031    0.491222    0.370270     0.004307
NI1690   NI        0.049974    0.583697    0.399339     0.004307
NI1691   NI        0.041531    0.606845    0.354922     0.004307
AU1692   AU        0.083154    0.579156    0.363863     0.007504
AU1693   AU        0.079322    0.617266    0.400350     0.007504
AU1694   AU        0.117434    0.587565    0.399998     0.007504
AU1695   AU        0.109093    0.617172    0.360075     0.007504
AU1696   AU        0.148932    0.590133    0.361820     0.007504
AU1697   AU        0.155314    0.614613    0.409465     0.007504
NI1698   NI        0.197123    0.594429    0.405192     0.004307
NI1699   NI        0.194213    0.619266    0.369068     0.004307
NI1700   NI        0.238474    0.580865    0.372306     0.004307
AU1701   AU        0.233055    0.618432    0.404186     0.007504
NI1702   NI        0.268849    0.579642    0.415247     0.004307
NI1703   NI        0.264781    0.619730    0.363487     0.004307
NI1704   NI        0.284599    0.577489    0.372876     0.004307
NI1705   NI        0.290133    0.613143    0.397720     0.004307
AU1706   AU        0.356900    0.603767    0.404418     0.007504
NI1707   NI        0.327208    0.608563    0.368833     0.004307
NI1708   NI        0.365043    0.562683    0.364269     0.004307
NI1709   NI        0.388655    0.601776    0.365928     0.004307
NI1710   NI        0.394871    0.596380    0.419430     0.004307
NI1711   NI        0.417001    0.635917    0.363073     0.004307
AU1712   AU        0.421239    0.570614    0.380783     0.007504
NI1713   NI        0.428430    0.632861    0.406626     0.004307
NI1714   NI        0.491378    0.576824    0.419485     0.004307
AU1715   AU        0.462084    0.599261    0.389325     0.007504
AU1716   AU        0.502923    0.580846    0.376774     0.007504
AU1717   AU        0.526986    0.605729    0.418534     0.007504
AU1718   AU        0.563832    0.582456    0.393021     0.007504
AU1719   AU        0.541391    0.615755    0.377137     0.007504
AU1720   AU        0.591722    0.583685    0.351434     0.007504
NI1721   NI        0.594318    0.620393    0.411196     0.004307
NI1722   NI        0.618368    0.570625    0.392462     0.004307
AU1723   AU        0.613596    0.628645    0.364688     0.007504
NI1724   NI        0.662799    0.605839    0.368370     0.004307
NI1725   NI        0.635222    0.604634    0.411026     0.004307
NI1726   NI        0.680606    0.579654    0.410712     0.004307
NI1727   NI        0.692378    0.626413    0.395486     0.004307
NI1728   NI        0.718712    0.594225    0.393502     0.004307
AU1729   AU        0.731981    0.644298    0.389157     0.007504
AU1730   AU        0.758628    0.573531    0.421516     0.007504
AU1731   AU        0.761615    0.612485    0.383673     0.007504
AU1732   AU        0.794946    0.572263    0.376164     0.007504
AU1733   AU        0.793113    0.604490    0.417455     0.007504
NI1734   NI        0.828245    0.591883    0.447175     0.004307
NI1735   NI        0.798622    0.638849    0.378000     0.004307
NI1736   NI        0.073349    0.659030    0.386148     0.004307
NI1737   NI        0.070250    0.707419    0.410564     0.004307
AU1738   AU        0.120062    0.651153    0.396214     0.007504
NI1739   NI        0.103806    0.698741    0.371048     0.004307
AU1740   AU        0.153703    0.644206    0.363755     0.007504
AU1741   AU        0.143277    0.692210    0.407763     0.007504
AU1742   AU        0.193257    0.646942    0.407267     0.007504
AU1743   AU        0.183926    0.687000    0.378356     0.007504
AU1744   AU        0.227920    0.657165    0.371010     0.007504
AU1745   AU        0.220439    0.688694    0.409111     0.007504
NI1746   NI        0.264127    0.654257    0.408255     0.004307
AU1747   AU        0.262125    0.689653    0.383464     0.007504
NI1748   NI        0.296967    0.657316    0.376169     0.004307
AU1749   AU        0.304793    0.684904    0.413567     0.007504
AU1750   AU        0.328433    0.641771    0.406769     0.007504
NI1751   NI        0.353198    0.678965    0.388788     0.004307
NI1752   NI        0.368518    0.637947    0.371208     0.004307
NI1753   NI        0.376462    0.655201    0.413934     0.004307
NI1754   NI        0.415137    0.677430    0.411685     0.004307
NI1755   NI        0.414320    0.697163    0.369580     0.004307
NI1756   NI        0.472876    0.634323    0.361339     0.004307
AU1757   AU        0.450650    0.696489    0.406308     0.007504
NI1758   NI        0.478197    0.654914    0.405616     0.004307
AU1759   AU        0.480464    0.695375    0.369490     0.007504
AU1760   AU        0.510863    0.655116    0.376751     0.007504
AU1761   AU        0.508423    0.692606    0.409562     0.007504
AU1762   AU        0.541776    0.654874    0.411371     0.007504
AU1763   AU        0.543796    0.693399    0.372872     0.007504
AU1764   AU        0.573260    0.652504    0.375135     0.007504
AU1765   AU        0.572243    0.692286    0.405673     0.007504
NI1766   NI        0.616448    0.663772    0.401005     0.004307
AU1767   AU        0.606230    0.689740    0.365951     0.007504
AU1768   AU        0.648884    0.667517    0.366098     0.007504
AU1769   AU        0.649333    0.699029    0.402071     0.007504
NI1770   NI        0.669133    0.662840    0.424017     0.004307
AU1771   AU        0.681750    0.702449    0.361397     0.007504
AU1772   AU        0.704306    0.658501    0.357302     0.007504
AU1773   AU        0.701273    0.682272    0.402750     0.007504
AU1774   AU        0.765630    0.647650    0.417095     0.007504
AU1775   AU        0.743736    0.686729    0.374910     0.007504
NI1776   NI        0.787243    0.683152    0.357001     0.004307
NI1777   NI        0.796105    0.679474    0.406680     0.004307
NI1778   NI        0.126204    0.728093    0.436771     0.004307
NI1779   NI        0.140470    0.729749    0.372973     0.004307
NI1780   NI        0.144788    0.773641    0.438754     0.004307
AU1781   AU        0.181037    0.728467    0.401880     0.007504
NI1782   NI        0.174326    0.766605    0.375919     0.004307
AU1783   AU        0.219683    0.723263    0.373367     0.007504
AU1784   AU        0.213733    0.763523    0.402327     0.007504
AU1785   AU        0.252652    0.733011    0.403680     0.007504
AU1786   AU        0.248882    0.766018    0.368142     0.007504
AU1787   AU        0.298879    0.721496    0.379178     0.007504
AU1788   AU        0.287667    0.770407    0.398416     0.007504
NI1789   NI        0.338999    0.722353    0.411190     0.004307
AU1790   AU        0.333374    0.759507    0.378606     0.007504
AU1791   AU        0.374300    0.722254    0.376103     0.007504
AU1792   AU        0.371365    0.760772    0.409645     0.007504
AU1793   AU        0.412251    0.727394    0.408536     0.007504
AU1794   AU        0.405744    0.762728    0.373467     0.007504
AU1795   AU        0.445123    0.730558    0.369424     0.007504
AU1796   AU        0.443494    0.765939    0.408704     0.007504
AU1797   AU        0.477361    0.730167    0.408173     0.007504
AU1798   AU        0.479176    0.767488    0.372277     0.007504
AU1799   AU        0.511670    0.731870    0.371380     0.007504
AU1800   AU        0.513231    0.765318    0.411271     0.007504
AU1801   AU        0.544304    0.728337    0.410635     0.007504
AU1802   AU        0.546399    0.767766    0.372996     0.007504
AU1803   AU        0.577642    0.729983    0.370346     0.007504
AU1804   AU        0.579148    0.762758    0.409593     0.007504
AU1805   AU        0.611611    0.724986    0.402924     0.007504
AU1806   AU        0.606864    0.765961    0.367616     0.007504
AU1807   AU        0.639475    0.727003    0.361945     0.007504
AU1808   AU        0.654515    0.750304    0.403246     0.007504
NI1809   NI        0.697356    0.751327    0.380072     0.004307
NI1810   NI        0.657462    0.773918    0.368573     0.004307
NI1811   NI        0.740045    0.740736    0.355826     0.004307
NI1812   NI        0.723917    0.721806    0.400350     0.004307
NI1813   NI        0.738596    0.763235    0.407646     0.004307
NI1814   NI        0.205410    0.820618    0.412420     0.004307
NI1815   NI        0.213023    0.801107    0.373013     0.004307
AU1816   AU        0.249302    0.801998    0.401195     0.007504
NI1817   NI        0.251593    0.840287    0.376328     0.004307
AU1818   AU        0.282098    0.806169    0.362214     0.007504
NI1819   NI        0.294291    0.848169    0.405448     0.004307
AU1820   AU        0.321976    0.806618    0.395996     0.007504
NI1821   NI        0.320501    0.841429    0.356934     0.004307
AU1822   AU        0.366905    0.797029    0.375600     0.007504
NI1823   NI        0.357718    0.859953    0.373087     0.004307
AU1824   AU        0.403258    0.798269    0.408235     0.007504
AU1825   AU        0.403031    0.831138    0.372092     0.007504
AU1826   AU        0.439478    0.798783    0.370334     0.007504
AU1827   AU        0.441624    0.828899    0.411712     0.007504
AU1828   AU        0.478431    0.802488    0.410469     0.007504
AU1829   AU        0.472990    0.837081    0.372438     0.007504
AU1830   AU        0.511445    0.804929    0.373372     0.007504
AU1831   AU        0.513362    0.837217    0.412626     0.007504
AU1832   AU        0.548060    0.800402    0.412401     0.007504
NI1833   NI        0.544574    0.847683    0.373977     0.004307
AU1834   AU        0.585428    0.805033    0.381465     0.007504
NI1835   NI        0.594248    0.848121    0.432598     0.004307
NI1836   NI        0.631829    0.787653    0.408188     0.004307
NI1837   NI        0.624963    0.831361    0.398757     0.004307
NI1838   NI        0.634802    0.808460    0.355792     0.004307
NI1839   NI        0.693622    0.785489    0.348320     0.004307
NI1840   NI        0.405803    0.858758    0.407804     0.004307
NI1841   NI        0.474030    0.853871    0.331860     0.004307
NI1842   NI        0.471899    0.856145    0.487960     0.004307
NI1843   NI        0.238033    0.054631    0.456586     0.004307
NI1844   NI        0.280288    0.045276    0.481592     0.004307
AU1845   AU        0.341194    0.048545    0.460367     0.007504
NI1846   NI        0.370389    0.016160    0.437074     0.004307
NI1847   NI        0.380427    0.025707    0.480999     0.004307
NI1848   NI        0.478651    0.013833    0.448244     0.004307
AU1849   AU        0.389510    0.059034    0.446337     0.007504
NI1850   NI        0.450425    0.023344    0.418099     0.004307
AU1851   AU        0.436058    0.046783    0.456588     0.007504
NI1852   NI        0.411644    0.000714    0.447071     0.004307
AU1853   AU        0.473714    0.063106    0.432525     0.007504
NI1854   NI        0.524246    0.013828    0.443403     0.004307
NI1855   NI        0.532495    0.044277    0.487401     0.004307
NI1856   NI        0.549477    0.054109    0.446007     0.004307
NI1857   NI        0.573254    0.057120    0.496039     0.004307
NI1858   NI        0.610407    0.046512    0.475403     0.004307
NI1859   NI        0.168163    0.130728    0.485697     0.004307
NI1860   NI        0.158706    0.101095    0.520847     0.004307
AU1861   AU        0.194182    0.128122    0.443841     0.007504
NI1862   NI        0.233111    0.095587    0.440378     0.004307
AU1863   AU        0.232693    0.130812    0.477678     0.007504
NI1864   NI        0.236418    0.088986    0.485403     0.004307
AU1865   AU        0.264890    0.132145    0.441190     0.007504
AU1866   AU        0.274848    0.088193    0.452493     0.007504
AU1867   AU        0.281104    0.126070    0.484323     0.007504
AU1868   AU        0.311047    0.086195    0.476291     0.007504
AU1869   AU        0.312208    0.121838    0.447253     0.007504
AU1870   AU        0.350589    0.093430    0.450264     0.007504
NI1871   NI        0.349464    0.115411    0.484504     0.004307
AU1872   AU        0.380175    0.074974    0.484265     0.007504
AU1873   AU        0.394208    0.117550    0.466865     0.007504
AU1874   AU        0.432316    0.088979    0.449880     0.007504
NI1875   NI        0.440258    0.124983    0.486539     0.004307
AU1876   AU        0.468599    0.080822    0.482240     0.007504
AU1877   AU        0.468554    0.115322    0.447588     0.007504
AU1878   AU        0.509625    0.083495    0.447866     0.007504
AU1879   AU        0.504021    0.116704    0.481268     0.007504
AU1880   AU        0.542698    0.086944    0.487336     0.007504
AU1881   AU        0.543132    0.123147    0.449847     0.007504
AU1882   AU        0.582503    0.082174    0.450701     0.007504
NI1883   NI        0.578440    0.120321    0.469308     0.004307
AU1884   AU        0.614219    0.090128    0.490968     0.007504
AU1885   AU        0.617241    0.126686    0.456690     0.007504
NI1886   NI        0.660204    0.100091    0.463904     0.004307
AU1887   AU        0.643790    0.125529    0.503336     0.007504
NI1888   NI        0.694172    0.113596    0.493231     0.004307
NI1889   NI        0.697110    0.113999    0.441152     0.004307
NI1890   NI        0.736599    0.125097    0.482169     0.004307
NI1891   NI        0.064426    0.200858    0.414680     0.004307
NI1892   NI        0.084598    0.161664    0.457527     0.004307
AU1893   AU        0.115520    0.189650    0.450715     0.007504
AU1894   AU        0.158912    0.163768    0.446763     0.007504
AU1895   AU        0.148241    0.186251    0.491210     0.007504
AU1896   AU        0.195800    0.162292    0.479209     0.007504
AU1897   AU        0.198288    0.199522    0.441002     0.007504
AU1898   AU        0.231343    0.164596    0.442904     0.007504
AU1899   AU        0.226822    0.194368    0.484838     0.007504
AU1900   AU        0.261533    0.165427    0.481294     0.007504
NI1901   NI        0.245387    0.215741    0.443285     0.004307
NI1902   NI        0.283774    0.179401    0.446280     0.004307
NI1903   NI        0.291828    0.200757    0.486152     0.004307
NI1904   NI        0.324022    0.149695    0.484167     0.004307
NI1905   NI        0.325927    0.194978    0.449051     0.004307
AU1906   AU        0.354905    0.145555    0.441461     0.007504
NI1907   NI        0.356921    0.179016    0.478044     0.004307
NI1908   NI        0.405032    0.163123    0.481812     0.004307
NI1909   NI        0.398371    0.170884    0.440998     0.004307
NI1910   NI        0.449971    0.163680    0.439634     0.004307
NI1911   NI        0.432142    0.209190    0.476893     0.004307
NI1912   NI        0.483652    0.162820    0.465392     0.004307
NI1913   NI        0.471073    0.208503    0.458385     0.004307
NI1914   NI        0.498630    0.171314    0.425991     0.004307
NI1915   NI        0.511381    0.204750    0.468954     0.004307
AU1916   AU        0.533648    0.162390    0.476823     0.007504
NI1917   NI        0.535940    0.206965    0.422804     0.004307
AU1918   AU        0.578883    0.159657    0.453264     0.007504
NI1919   NI        0.565665    0.208880    0.464615     0.004307
AU1920   AU        0.619785    0.166676    0.484600     0.007504
NI1921   NI        0.614257    0.208014    0.423350     0.004307
NI1922   NI        0.640201    0.172717    0.446819     0.004307
AU1923   AU        0.656791    0.201134    0.488736     0.007504
AU1924   AU        0.694183    0.151190    0.474947     0.007504
AU1925   AU        0.691378    0.187798    0.441140     0.007504
AU1926   AU        0.728720    0.153273    0.436455     0.007504
AU1927   AU        0.729448    0.188111    0.475387     0.007504
NI1928   NI        0.765584    0.163674    0.473766     0.004307
AU1929   AU        0.765783    0.190625    0.438374     0.007504
NI1930   NI        0.799658    0.200365    0.472912     0.004307
NI1931   NI        0.050992    0.264205    0.447104     0.004307
AU1932   AU        0.086865    0.229877    0.443418     0.007504
AU1933   AU        0.083115    0.265436    0.478990     0.007504
AU1934   AU        0.109317    0.220489    0.489622     0.007504
AU1935   AU        0.115756    0.271898    0.441458     0.007504
AU1936   AU        0.133029    0.232213    0.433674     0.007504
AU1937   AU        0.131957    0.265957    0.488600     0.007504
AU1938   AU        0.183156    0.210101    0.480420     0.007504
AU1939   AU        0.165469    0.253876    0.454716     0.007504
AU1940   AU        0.214291    0.238845    0.466441     0.007504
AU1941   AU        0.227508    0.280203    0.489651     0.007504
AU1942   AU        0.263145    0.243973    0.483001     0.007504
AU1943   AU        0.241889    0.268421    0.443392     0.007504
NI1944   NI        0.300167    0.238648    0.441274     0.004307
AU1945   AU        0.274434    0.286573    0.469313     0.007504
NI1946   NI        0.328102    0.233443    0.476922     0.004307
NI1947   NI        0.323577    0.271944    0.455219     0.004307
NI1948   NI        0.364164    0.211385    0.446602     0.004307
NI1949   NI        0.378412    0.250472    0.471035     0.004307
NI1950   NI        0.401548    0.228967    0.441149     0.004307
NI1951   NI        0.402830    0.272137    0.434042     0.004307
NI1952   NI        0.443040    0.203694    0.421095     0.004307
NI1953   NI        0.428078    0.253066    0.475996     0.004307
NI1954   NI        0.474431    0.242843    0.486499     0.004307
NI1955   NI        0.458425    0.249239    0.443624     0.004307
NI1956   NI        0.504810    0.235593    0.428847     0.004307
NI1957   NI        0.499000    0.274453    0.500076     0.004307
NI1958   NI        0.529963    0.241492    0.477268     0.004307
NI1959   NI        0.537133    0.271171    0.432248     0.004307
NI1960   NI        0.568258    0.234092    0.429708     0.004307
AU1961   AU        0.574555    0.260253    0.465983     0.007504
AU1962   AU        0.613191    0.217612    0.471789     0.007504
AU1963   AU        0.616229    0.252025    0.436665     0.007504
AU1964   AU        0.652571    0.219279    0.441323     0.007504
AU1965   AU        0.650755    0.253076    0.475759     0.007504
AU1966   AU        0.693370    0.223011    0.476734     0.007504
AU1967   AU        0.690235    0.254459    0.445450     0.007504
AU1968   AU        0.728273    0.223020    0.440184     0.007504
AU1969   AU        0.725318    0.254206    0.479881     0.007504
AU1970   AU        0.763995    0.224154    0.475026     0.007504
AU1971   AU        0.758405    0.263727    0.439943     0.007504
NI1972   NI        0.796067    0.230344    0.437945     0.004307
AU1973   AU        0.805432    0.299856    0.490220     0.007504
NI1974   NI        0.817976    0.284236    0.446097     0.004307
NI1975   NI        0.039228    0.274661    0.487587     0.004307
NI1976   NI        0.039345    0.332826    0.436079     0.004307
AU1977   AU        0.081349    0.305907    0.449342     0.007504
AU1978   AU        0.083753    0.347064    0.479256     0.007504
AU1979   AU        0.115203    0.305252    0.481139     0.007504
AU1980   AU        0.109599    0.348335    0.436055     0.007504
AU1981   AU        0.140415    0.312336    0.437786     0.007504
NI1982   NI        0.147708    0.335099    0.487495     0.004307
NI1983   NI        0.196601    0.330476    0.484051     0.004307
NI1984   NI        0.164001    0.296615    0.480803     0.004307
NI1985   NI        0.212271    0.309694    0.448037     0.004307
AU1986   AU        0.231818    0.369304    0.469662     0.007504
AU1987   AU        0.246671    0.327908    0.481081     0.007504
NI1988   NI        0.226270    0.345725    0.410336     0.004307
AU1989   AU        0.260692    0.317351    0.434343     0.007504
AU1990   AU        0.296592    0.335149    0.464387     0.007504
NI1991   NI        0.318342    0.314561    0.506665     0.004307
AU1992   AU        0.324159    0.366583    0.433869     0.007504
NI1993   NI        0.363356    0.282736    0.443313     0.004307
NI1994   NI        0.344870    0.323084    0.465651     0.004307
NI1995   NI        0.390555    0.291282    0.478403     0.004307
NI1996   NI        0.395327    0.319465    0.447419     0.004307
NI1997   NI        0.426776    0.302738    0.404744     0.004307
NI1998   NI        0.428066    0.320615    0.472515     0.004307
NI1999   NI        0.446794    0.292260    0.441812     0.004307
NI2000   NI        0.463082    0.338803    0.451770     0.004307
NI2001   NI        0.498099    0.278548    0.455823     0.004307
NI2002   NI        0.507355    0.315069    0.475091     0.004307
NI2003   NI        0.539258    0.284579    0.478353     0.004307
NI2004   NI        0.524706    0.342897    0.435240     0.004307
NI2005   NI        0.597695    0.313274    0.446612     0.004307
NI2006   NI        0.569559    0.374341    0.456847     0.004307
NI2007   NI        0.626706    0.296161    0.470136     0.004307
NI2008   NI        0.617229    0.352457    0.440215     0.004307
NI2009   NI        0.660244    0.290789    0.447627     0.004307
NI2010   NI        0.659969    0.336419    0.452380     0.004307
AU2011   AU        0.689230    0.286865    0.484257     0.007504
NI2012   NI        0.700138    0.347920    0.446965     0.004307
AU2013   AU        0.717499    0.292798    0.445597     0.007504
NI2014   NI        0.716573    0.376597    0.482136     0.004307
AU2015   AU        0.731276    0.316798    0.486364     0.007504
AU2016   AU        0.744174    0.339172    0.440417     0.007504
AU2017   AU        0.778540    0.303194    0.446624     0.007504
AU2018   AU        0.775820    0.341311    0.478344     0.007504
NI2019   NI        0.852079    0.297395    0.472267     0.004307
AU2020   AU        0.816471    0.333385    0.452850     0.007504
NI2021   NI        0.031337    0.386851    0.478404     0.004307
NI2022   NI        0.002937    0.433561    0.485937     0.004307
NI2023   NI        0.033488    0.343424    0.481377     0.004307
NI2024   NI        0.037309    0.420220    0.455643     0.004307
AU2025   AU        0.064662    0.379502    0.440235     0.007504
AU2026   AU        0.082368    0.401040    0.479130     0.007504
AU2027   AU        0.124074    0.375754    0.476989     0.007504
AU2028   AU        0.111794    0.397669    0.435068     0.007504
NI2029   NI        0.152610    0.367415    0.436196     0.004307
AU2030   AU        0.128536    0.426618    0.476333     0.007504
NI2031   NI        0.178403    0.373731    0.483580     0.004307
NI2032   NI        0.177071    0.412524    0.467550     0.004307
AU2033   AU        0.225145    0.386808    0.425279     0.007504
NI2034   NI        0.215913    0.408303    0.485300     0.004307
NI2035   NI        0.272268    0.361623    0.492155     0.004307
NI2036   NI        0.259601    0.410815    0.473033     0.004307
AU2037   AU        0.270765    0.367445    0.437097     0.007504
NI2038   NI        0.297183    0.407602    0.501866     0.004307
NI2039   NI        0.319405    0.366723    0.494892     0.004307
NI2040   NI        0.304701    0.401686    0.453452     0.004307
NI2041   NI        0.367326    0.363965    0.411817     0.004307
NI2042   NI        0.339809    0.404659    0.499711     0.004307
NI2043   NI        0.362490    0.366017    0.469289     0.004307
NI2044   NI        0.388585    0.398421    0.443987     0.004307
NI2045   NI        0.429145    0.349856    0.423905     0.004307
AU2046   AU        0.453457    0.388768    0.443057     0.007504
NI2047   NI        0.411373    0.370078    0.461785     0.004307
NI2048   NI        0.481223    0.417067    0.465137     0.004307
NI2049   NI        0.495179    0.367395    0.457317     0.004307
NI2050   NI        0.515673    0.398510    0.480839     0.004307
NI2051   NI        0.552676    0.335694    0.463968     0.004307
NI2052   NI        0.533493    0.422262    0.438372     0.004307
NI2053   NI        0.573138    0.363493    0.417720     0.004307
NI2054   NI        0.565477    0.418415    0.471550     0.004307
NI2055   NI        0.626060    0.383364    0.473964     0.004307
AU2056   AU        0.606990    0.403518    0.433175     0.007504
NI2057   NI        0.652988    0.382622    0.440151     0.004307
NI2058   NI        0.639702    0.417045    0.511113     0.004307
NI2059   NI        0.673510    0.379836    0.503622     0.004307
NI2060   NI        0.676774    0.419215    0.444556     0.004307
NI2061   NI        0.718051    0.385996    0.435003     0.004307
NI2062   NI        0.738543    0.421765    0.478148     0.004307
NI2063   NI        0.755281    0.384036    0.469472     0.004307
AU2064   AU        0.767451    0.416359    0.437978     0.007504
AU2065   AU        0.794630    0.377483    0.450469     0.007504
AU2066   AU        0.788906    0.390367    0.498315     0.007504
NI2067   NI        0.844711    0.362883    0.482597     0.004307
AU2068   AU        0.830249    0.405931    0.478426     0.007504
NI2069   NI        0.843316    0.375925    0.435515     0.004307
NI2070   NI        0.881513    0.400387    0.479519     0.004307
NI2071   NI        0.000910    0.469368    0.458470     0.004307
NI2072   NI        0.008157    0.499814    0.499770     0.004307
AU2073   AU        0.066855    0.454480    0.469118     0.007504
NI2074   NI        0.037054    0.491216    0.460393     0.004307
AU2075   AU        0.074086    0.428540    0.431734     0.007504
AU2076   AU        0.079086    0.499282    0.464072     0.007504
NI2077   NI        0.116230    0.467666    0.484241     0.004307
AU2078   AU        0.105481    0.470217    0.432648     0.007504
NI2079   NI        0.148408    0.431354    0.430577     0.004307
NI2080   NI        0.138581    0.502364    0.466011     0.004307
NI2081   NI        0.192750    0.459761    0.490203     0.004307
NI2082   NI        0.190146    0.462741    0.436886     0.004307
AU2083   AU        0.227186    0.430782    0.446263     0.007504
NI2084   NI        0.183883    0.501644    0.462836     0.004307
NI2085   NI        0.277483    0.450218    0.486456     0.004307
NI2086   NI        0.240245    0.478674    0.462420     0.004307
NI2087   NI        0.269804    0.457916    0.441086     0.004307
NI2088   NI        0.294050    0.481669    0.517421     0.004307
NI2089   NI        0.322544    0.446875    0.498197     0.004307
NI2090   NI        0.317670    0.466935    0.453661     0.004307
NI2091   NI        0.350447    0.431206    0.457965     0.004307
NI2092   NI        0.357331    0.476616    0.463032     0.004307
NI2093   NI        0.422084    0.416754    0.468316     0.004307
NI2094   NI        0.415236    0.468135    0.458824     0.004307
NI2095   NI        0.424731    0.438138    0.429715     0.004307
NI2096   NI        0.462168    0.504758    0.478422     0.004307
NI2097   NI        0.447474    0.448580    0.480024     0.004307
NI2098   NI        0.455115    0.475857    0.443928     0.004307
NI2099   NI        0.493502    0.455066    0.452751     0.004307
NI2100   NI        0.518430    0.500161    0.504373     0.004307
NI2101   NI        0.521281    0.447061    0.499305     0.004307
AU2102   AU        0.536470    0.465367    0.442466     0.007504
AU2103   AU        0.584883    0.445989    0.436554     0.007504
NI2104   NI        0.575165    0.486128    0.457543     0.004307
NI2105   NI        0.611061    0.439281    0.478279     0.004307
AU2106   AU        0.619717    0.487040    0.443011     0.007504
AU2107   AU        0.637301    0.442807    0.437100     0.007504
NI2108   NI        0.646834    0.462544    0.484037     0.004307
NI2109   NI        0.688448    0.417297    0.484605     0.004307
AU2110   AU        0.669636    0.481261    0.445887     0.007504
NI2111   NI        0.703590    0.452835    0.448541     0.004307
NI2112   NI        0.744386    0.463349    0.480846     0.004307
AU2113   AU        0.789554    0.436809    0.468786     0.007504
AU2114   AU        0.769771    0.472094    0.441230     0.007504
AU2115   AU        0.800351    0.440826    0.421622     0.007504
AU2116   AU        0.791150    0.480084    0.487846     0.007504
AU2117   AU        0.827986    0.456113    0.463028     0.007504
AU2118   AU        0.835630    0.483010    0.422148     0.007504
NI2119   NI        0.862555    0.424195    0.442535     0.004307
AU2120   AU        0.833303    0.504546    0.467242     0.007504
NI2121   NI        0.000714    0.532433    0.433643     0.004307
NI2122   NI        0.035483    0.535393    0.472729     0.004307
NI2123   NI        0.029663    0.567733    0.438313     0.004307
AU2124   AU        0.069960    0.502026    0.418426     0.007504
AU2125   AU        0.066590    0.558049    0.502511     0.007504
NI2126   NI        0.107488    0.518779    0.499311     0.004307
NI2127   NI        0.102985    0.543229    0.454620     0.004307
NI2128   NI        0.121601    0.514699    0.429359     0.004307
AU2129   AU        0.147054    0.564686    0.479025     0.007504
NI2130   NI        0.150588    0.539291    0.444908     0.004307
NI2131   NI        0.196753    0.548188    0.431096     0.004307
AU2132   AU        0.219571    0.502831    0.432083     0.007504
NI2133   NI        0.215447    0.537288    0.469873     0.004307
NI2134   NI        0.249755    0.493457    0.501881     0.004307
NI2135   NI        0.253485    0.534994    0.453429     0.004307
NI2136   NI        0.283747    0.506991    0.470690     0.004307
NI2137   NI        0.275645    0.542854    0.502176     0.004307
NI2138   NI        0.319455    0.494018    0.487897     0.004307
AU2139   AU        0.311246    0.552699    0.444803     0.007504
AU2140   AU        0.351379    0.530468    0.431695     0.007504
AU2141   AU        0.350861    0.550852    0.479233     0.007504
NI2142   NI        0.380815    0.512897    0.477374     0.004307
AU2143   AU        0.393622    0.549522    0.450313     0.007504
AU2144   AU        0.423925    0.512461    0.459463     0.007504
NI2145   NI        0.443392    0.550973    0.481235     0.004307
NI2146   NI        0.499305    0.537857    0.485993     0.004307
AU2147   AU        0.467376    0.539873    0.444575     0.007504
AU2148   AU        0.501684    0.502564    0.441477     0.007504
NI2149   NI        0.539299    0.572259    0.494931     0.004307
AU2150   AU        0.542729    0.519143    0.463408     0.007504
AU2151   AU        0.550002    0.555117    0.427511     0.007504
AU2152   AU        0.588175    0.523908    0.436885     0.007504
NI2153   NI        0.582482    0.552719    0.469917     0.004307
NI2154   NI        0.612047    0.512159    0.480489     0.004307
NI2155   NI        0.608436    0.574184    0.434498     0.004307
NI2156   NI        0.635363    0.529461    0.445859     0.004307
NI2157   NI        0.661821    0.532774    0.480496     0.004307
NI2158   NI        0.692057    0.458380    0.487105     0.004307
NI2159   NI        0.678484    0.541847    0.440117     0.004307
NI2160   NI        0.721310    0.497711    0.459412     0.004307
NI2161   NI        0.710848    0.543641    0.470571     0.004307
AU2162   AU        0.751329    0.514314    0.497415     0.007504
AU2163   AU        0.753386    0.534549    0.448712     0.007504
AU2164   AU        0.795846    0.508012    0.442154     0.007504
AU2165   AU        0.794247    0.533306    0.483076     0.007504
NI2166   NI        0.833817    0.554796    0.478397     0.004307
NI2167   NI        0.863506    0.564576    0.424896     0.004307
NI2168   NI        0.871546    0.472789    0.462591     0.004307
NI2169   NI        0.051016    0.590013    0.476760     0.004307
NI2170   NI        0.046711    0.622151    0.437885     0.004307
AU2171   AU        0.080076    0.583812    0.438922     0.007504
AU2172   AU        0.079699    0.626121    0.473307     0.007504
AU2173   AU        0.107000    0.592078    0.479604     0.007504
AU2174   AU        0.115111    0.619417    0.437336     0.007504
AU2175   AU        0.176834    0.583631    0.444850     0.007504
AU2176   AU        0.149449    0.619510    0.474310     0.007504
NI2177   NI        0.192876    0.571829    0.492527     0.004307
NI2178   NI        0.183981    0.624494    0.440749     0.004307
NI2179   NI        0.226399    0.585758    0.438742     0.004307
NI2180   NI        0.212843    0.612467    0.473464     0.004307
NI2181   NI        0.237389    0.572355    0.479758     0.004307
NI2182   NI        0.271101    0.619470    0.433642     0.004307
NI2183   NI        0.274524    0.574550    0.457975     0.004307
NI2184   NI        0.302677    0.615728    0.520724     0.004307
NI2185   NI        0.334479    0.601382    0.485815     0.004307
AU2186   AU        0.315996    0.610051    0.436123     0.007504
AU2187   AU        0.352434    0.579951    0.444046     0.007504
NI2188   NI        0.395056    0.639593    0.506240     0.004307
AU2189   AU        0.378749    0.594915    0.477839     0.007504
AU2190   AU        0.362333    0.628831    0.445215     0.007504
AU2191   AU        0.442470    0.578560    0.425792     0.007504
NI2192   NI        0.428286    0.613418    0.448270     0.004307
NI2193   NI        0.466317    0.583599    0.462189     0.004307
NI2194   NI        0.474412    0.617957    0.434027     0.004307
NI2195   NI        0.514187    0.565531    0.454031     0.004307
NI2196   NI        0.516351    0.609171    0.469964     0.004307
NI2197   NI        0.556645    0.611559    0.504440     0.004307
NI2198   NI        0.544350    0.643824    0.452270     0.004307
NI2199   NI        0.558677    0.599913    0.457809     0.004307
NI2200   NI        0.574963    0.650457    0.492617     0.004307
NI2201   NI        0.630168    0.568139    0.483795     0.004307
NI2202   NI        0.602403    0.610103    0.455882     0.004307
NI2203   NI        0.648945    0.580212    0.442407     0.004307
NI2204   NI        0.650606    0.620820    0.466474     0.004307
AU2205   AU        0.680707    0.583501    0.470550     0.007504
NI2206   NI        0.688581    0.615798    0.443906     0.004307
NI2207   NI        0.718225    0.584176    0.435525     0.004307
AU2208   AU        0.718914    0.616622    0.471637     0.007504
NI2209   NI        0.742281    0.570654    0.466857     0.004307
AU2210   AU        0.752576    0.610108    0.444656     0.007504
AU2211   AU        0.783577    0.575062    0.461069     0.007504
NI2212   NI        0.796103    0.631271    0.475436     0.004307
NI2213   NI        0.817805    0.594718    0.490603     0.004307
NI2214   NI        0.848201    0.612996    0.415536     0.004307
NI2215   NI        0.080392    0.654863    0.431487     0.004307
NI2216   NI        0.073884    0.659146    0.499404     0.004307
AU2217   AU        0.114604    0.657803    0.469893     0.007504
NI2218   NI        0.105537    0.688098    0.426341     0.004307
AU2219   AU        0.151051    0.655455    0.438954     0.007504
AU2220   AU        0.152911    0.695247    0.468203     0.007504
AU2221   AU        0.187041    0.654336    0.470979     0.007504
AU2222   AU        0.185076    0.689314    0.436698     0.007504
AU2223   AU        0.229245    0.650579    0.445696     0.007504
AU2224   AU        0.221876    0.688981    0.472280     0.007504
NI2225   NI        0.251758    0.626143    0.480161     0.004307
AU2226   AU        0.257323    0.692684    0.434879     0.007504
NI2227   NI        0.277780    0.656474    0.452477     0.004307
AU2228   AU        0.293628    0.696229    0.468762     0.007504
NI2229   NI        0.293407    0.618369    0.473726     0.004307
NI2230   NI        0.326854    0.665997    0.452802     0.004307
NI2231   NI        0.388894    0.667309    0.467130     0.004307
NI2232   NI        0.355643    0.697384    0.462618     0.004307
NI2233   NI        0.428131    0.658328    0.474189     0.004307
NI2234   NI        0.376462    0.698402    0.421060     0.004307
NI2235   NI        0.445252    0.654547    0.437632     0.004307
NI2236   NI        0.447352    0.693616    0.481757     0.004307
NI2237   NI        0.469389    0.639966    0.469677     0.004307
AU2238   AU        0.473069    0.693201    0.446439     0.007504
NI2239   NI        0.503409    0.648374    0.436814     0.004307
AU2240   AU        0.509270    0.691964    0.481876     0.007504
AU2241   AU        0.524057    0.647242    0.499237     0.007504
AU2242   AU        0.543276    0.688875    0.445454     0.007504
NI2243   NI        0.582813    0.655241    0.443504     0.004307
AU2244   AU        0.584406    0.691206    0.480793     0.007504
NI2245   NI        0.615113    0.656929    0.478118     0.004307
AU2246   AU        0.617128    0.690597    0.441074     0.007504
NI2247   NI        0.625347    0.644996    0.438481     0.004307
AU2248   AU        0.653972    0.690564    0.476700     0.007504
AU2249   AU        0.685921    0.652722    0.476876     0.007504
AU2250   AU        0.695374    0.695994    0.451214     0.007504
AU2251   AU        0.715540    0.650373    0.436428     0.007504
AU2252   AU        0.732860    0.690212    0.485261     0.007504
AU2253   AU        0.757710    0.652684    0.464952     0.007504
AU2254   AU        0.743589    0.689581    0.435525     0.007504
NI2255   NI        0.821986    0.644571    0.423422     0.004307
NI2256   NI        0.793565    0.675187    0.449960     0.004307
NI2257   NI        0.096374    0.698615    0.466461     0.004307
AU2258   AU        0.171579    0.739874    0.449869     0.007504
NI2259   NI        0.120731    0.726854    0.487943     0.004307
AU2260   AU        0.215705    0.731722    0.500904     0.007504
NI2261   NI        0.183940    0.782529    0.428845     0.004307
AU2262   AU        0.217282    0.729171    0.438079     0.007504
AU2263   AU        0.211673    0.765208    0.468778     0.007504
AU2264   AU        0.255982    0.729199    0.468676     0.007504
AU2265   AU        0.252637    0.766959    0.436075     0.007504
AU2266   AU        0.289568    0.730321    0.431286     0.007504
AU2267   AU        0.288569    0.765995    0.468195     0.007504
AU2268   AU        0.326305    0.737667    0.468121     0.007504
AU2269   AU        0.324734    0.769505    0.429815     0.007504
NI2270   NI        0.368266    0.740206    0.447958     0.004307
AU2271   AU        0.360748    0.766324    0.493946     0.007504
NI2272   NI        0.397826    0.709452    0.462235     0.004307
AU2273   AU        0.407342    0.764146    0.446655     0.007504
AU2274   AU        0.443283    0.728160    0.445656     0.007504
AU2275   AU        0.439007    0.763238    0.482261     0.007504
AU2276   AU        0.472282    0.728926    0.482665     0.007504
AU2277   AU        0.476148    0.765024    0.446454     0.007504
AU2278   AU        0.510688    0.725798    0.446673     0.007504
AU2279   AU        0.509285    0.763417    0.484488     0.007504
AU2280   AU        0.545237    0.727844    0.482914     0.007504
AU2281   AU        0.546833    0.762425    0.449067     0.007504
AU2282   AU        0.581352    0.724595    0.444538     0.007504
AU2283   AU        0.583328    0.761692    0.482221     0.007504
AU2284   AU        0.619671    0.725217    0.479703     0.007504
AU2285   AU        0.619414    0.757018    0.441168     0.007504
AU2286   AU        0.650728    0.723316    0.438701     0.007504
AU2287   AU        0.663157    0.772268    0.446682     0.007504
AU2288   AU        0.677161    0.733433    0.475282     0.007504
AU2289   AU        0.695340    0.739688    0.428670     0.007504
NI2290   NI        0.736931    0.728940    0.455535     0.004307
NI2291   NI        0.739672    0.772973    0.462766     0.004307
NI2292   NI        0.765767    0.722284    0.398106     0.004307
NI2293   NI        0.160777    0.786683    0.473614     0.004307
NI2294   NI        0.198170    0.807933    0.461858     0.004307
AU2295   AU        0.248105    0.797594    0.473606     0.007504
NI2296   NI        0.251876    0.847022    0.427983     0.004307
AU2297   AU        0.286332    0.803776    0.436820     0.007504
NI2298   NI        0.284030    0.834508    0.476882     0.004307
AU2299   AU        0.325221    0.798907    0.475086     0.007504
NI2300   NI        0.327426    0.832034    0.440606     0.004307
AU2301   AU        0.365628    0.794376    0.445555     0.007504
AU2302   AU        0.361521    0.832242    0.477349     0.007504
AU2303   AU        0.397451    0.797723    0.488355     0.007504
AU2304   AU        0.401829    0.829370    0.448116     0.007504
AU2305   AU        0.438750    0.797525    0.446562     0.007504
AU2306   AU        0.435174    0.828040    0.486445     0.007504
AU2307   AU        0.474668    0.799043    0.484682     0.007504
AU2308   AU        0.471503    0.834245    0.450128     0.007504
AU2309   AU        0.511090    0.802489    0.448750     0.007504
AU2310   AU        0.511555    0.833439    0.485143     0.007504
AU2311   AU        0.545874    0.797048    0.485514     0.007504
NI2312   NI        0.547646    0.837439    0.448806     0.004307
AU2313   AU        0.598071    0.805333    0.430249     0.007504
NI2314   NI        0.583235    0.814746    0.473909     0.004307
NI2315   NI        0.620647    0.788546    0.479567     0.004307
NI2316   NI        0.634165    0.829211    0.448136     0.004307
NI2317   NI        0.703186    0.784408    0.423008     0.004307
NI2318   NI        0.701494    0.783380    0.483711     0.004307
AU2319   AU        0.366826    0.831058    0.412068     0.007504
NI2320   NI        0.412398    0.870251    0.483671     0.004307
NI2321   NI        0.435674    0.858414    0.449073     0.004307
NI2322   NI        0.495803    0.900689    0.481137     0.004307
NI2323   NI        0.506211    0.867255    0.449141     0.004307
NI2324   NI        0.208564    0.072426    0.511578     0.004307
NI2325   NI        0.326622    0.043685    0.563354     0.004307
NI2326   NI        0.309111    0.063473    0.519159     0.004307
NI2327   NI        0.373593    0.064332    0.551106     0.004307
NI2328   NI        0.411073    0.048501    0.512783     0.004307
NI2329   NI        0.458590    0.029145    0.497777     0.004307
NI2330   NI        0.424088    0.055830    0.571347     0.004307
AU2331   AU        0.457474    0.064541    0.531417     0.007504
NI2332   NI        0.495019    0.048463    0.468690     0.004307
NI2333   NI        0.495183    0.036557    0.532529     0.004307
NI2334   NI        0.544949    0.050497    0.535078     0.004307
NI2335   NI        0.611584    0.057375    0.530042     0.004307
NI2336   NI        0.129468    0.145233    0.547395     0.004307
AU2337   AU        0.205323    0.116165    0.518088     0.007504
AU2338   AU        0.232371    0.115353    0.558351     0.007504
NI2339   NI        0.224246    0.070143    0.553534     0.004307
AU2340   AU        0.257498    0.120791    0.519468     0.007504
NI2341   NI        0.262649    0.068028    0.518712     0.004307
AU2342   AU        0.287491    0.113787    0.560983     0.007504
NI2343   NI        0.330068    0.088991    0.560974     0.004307
NI2344   NI        0.303144    0.103296    0.517738     0.004307
NI2345   NI        0.345472    0.049735    0.508272     0.004307
AU2346   AU        0.365924    0.147360    0.558015     0.007504
NI2347   NI        0.412334    0.088744    0.548836     0.004307
NI2348   NI        0.384258    0.126186    0.522135     0.004307
AU2349   AU        0.424080    0.087235    0.500153     0.007504
NI2350   NI        0.428011    0.129782    0.533092     0.004307
AU2351   AU        0.486936    0.085537    0.564968     0.007504
AU2352   AU        0.471728    0.114749    0.522260     0.007504
AU2353   AU        0.503420    0.079622    0.517298     0.007504
AU2354   AU        0.514843    0.123560    0.548465     0.007504
AU2355   AU        0.546288    0.087473    0.559079     0.007504
AU2356   AU        0.543558    0.128471    0.510586     0.007504
AU2357   AU        0.575227    0.092254    0.523622     0.007504
AU2358   AU        0.575216    0.132450    0.550644     0.007504
AU2359   AU        0.619595    0.107419    0.537845     0.007504
AU2360   AU        0.597617    0.127396    0.506457     0.007504
NI2361   NI        0.657353    0.078735    0.515644     0.004307
NI2362   NI        0.651336    0.111304    0.577133     0.004307
NI2363   NI        0.676119    0.112684    0.532800     0.004307
NI2364   NI        0.103375    0.174328    0.499716     0.004307
AU2365   AU        0.171752    0.154076    0.523396     0.007504
AU2366   AU        0.150469    0.196120    0.548607     0.007504
AU2367   AU        0.199160    0.147635    0.560818     0.007504
AU2368   AU        0.193533    0.194780    0.520310     0.007504
AU2369   AU        0.226695    0.158764    0.518926     0.007504
AU2370   AU        0.226315    0.192109    0.556844     0.007504
AU2371   AU        0.261307    0.153866    0.554993     0.007504
AU2372   AU        0.265413    0.192018    0.520696     0.007504
AU2373   AU        0.297599    0.152978    0.522891     0.007504
AU2374   AU        0.296755    0.189932    0.557183     0.007504
AU2375   AU        0.315217    0.145565    0.571473     0.007504
NI2376   NI        0.325966    0.193791    0.515467     0.004307
NI2377   NI        0.339031    0.122548    0.532911     0.004307
NI2378   NI        0.366818    0.200630    0.538652     0.004307
NI2379   NI        0.373822    0.166616    0.513814     0.004307
NI2380   NI        0.382965    0.206804    0.493351     0.004307
NI2381   NI        0.449606    0.162409    0.501536     0.004307
NI2382   NI        0.422744    0.180600    0.529329     0.004307
NI2383   NI        0.485571    0.167899    0.566061     0.004307
NI2384   NI        0.477756    0.202168    0.505375     0.004307
AU2385   AU        0.499646    0.156535    0.512890     0.007504
NI2386   NI        0.505246    0.197121    0.538960     0.004307
AU2387   AU        0.539986    0.167526    0.543574     0.007504
NI2388   NI        0.535360    0.208257    0.506638     0.004307
AU2389   AU        0.575924    0.167054    0.505836     0.007504
AU2390   AU        0.580903    0.188359    0.548616     0.007504
AU2391   AU        0.616528    0.156199    0.535441     0.007504
NI2392   NI        0.622318    0.204054    0.518669     0.004307
NI2393   NI        0.660691    0.161905    0.509545     0.004307
AU2394   AU        0.655855    0.187964    0.544704     0.007504
AU2395   AU        0.691759    0.153660    0.547132     0.007504
AU2396   AU        0.696975    0.189459    0.514502     0.007504
NI2397   NI        0.728865    0.154659    0.513117     0.004307
NI2398   NI        0.733441    0.184226    0.548061     0.004307
NI2399   NI        0.763195    0.189728    0.506507     0.004307
NI2400   NI        0.038251    0.262798    0.537062     0.004307
NI2401   NI        0.069783    0.238756    0.520618     0.004307
NI2402   NI        0.081174    0.255219    0.558206     0.004307
AU2403   AU        0.114257    0.231883    0.539088     0.007504
AU2404   AU        0.099206    0.280534    0.523388     0.007504
AU2405   AU        0.155636    0.230684    0.512666     0.007504
AU2406   AU        0.153846    0.258687    0.552226     0.007504
AU2407   AU        0.188982    0.231123    0.551721     0.007504
AU2408   AU        0.189758    0.270384    0.517105     0.007504
AU2409   AU        0.224279    0.234481    0.514329     0.007504
AU2410   AU        0.221965    0.268733    0.555174     0.007504
AU2411   AU        0.259980    0.229299    0.554085     0.007504
AU2412   AU        0.260315    0.268133    0.525594     0.007504
NI2413   NI        0.297646    0.230140    0.521262     0.004307
NI2414   NI        0.300835    0.258791    0.569222     0.004307
NI2415   NI        0.329715    0.227223    0.558913     0.004307
NI2416   NI        0.302057    0.271633    0.503740     0.004307
NI2417   NI        0.356652    0.240799    0.506256     0.004307
NI2418   NI        0.336475    0.272094    0.532406     0.004307
NI2419   NI        0.407606    0.222016    0.538892     0.004307
NI2420   NI        0.401076    0.259072    0.506693     0.004307
NI2421   NI        0.443868    0.232432    0.515603     0.004307
NI2422   NI        0.427389    0.263429    0.538933     0.004307
NI2423   NI        0.448883    0.217633    0.562059     0.004307
NI2424   NI        0.443401    0.296563    0.512860     0.004307
NI2425   NI        0.470415    0.270639    0.537308     0.004307
NI2426   NI        0.494571    0.270858    0.579574     0.004307
NI2427   NI        0.512292    0.237364    0.541238     0.004307
NI2428   NI        0.560184    0.256536    0.507036     0.004307
NI2429   NI        0.580796    0.215056    0.510654     0.004307
NI2430   NI        0.550764    0.222549    0.548650     0.004307
NI2431   NI        0.615812    0.232862    0.560105     0.004307
NI2432   NI        0.594704    0.267219    0.533711     0.004307
NI2433   NI        0.659174    0.235608    0.539994     0.004307
NI2434   NI        0.643747    0.264954    0.576183     0.004307
AU2435   AU        0.700348    0.210041    0.554666     0.007504
AU2436   AU        0.694333    0.251200    0.520630     0.007504
AU2437   AU        0.727815    0.222065    0.513324     0.007504
AU2438   AU        0.730896    0.251284    0.554665     0.007504
NI2439   NI        0.765959    0.215912    0.548301     0.004307
AU2440   AU        0.764492    0.274763    0.485373     0.007504
NI2441   NI        0.803420    0.229219    0.511883     0.004307
AU2442   AU        0.771056    0.265023    0.529899     0.007504
NI2443   NI        0.816863    0.249078    0.477998     0.004307
NI2444   NI        0.061399    0.297174    0.538132     0.004307
NI2445   NI        0.035603    0.340843    0.523647     0.004307
AU2446   AU        0.066610    0.312399    0.498356     0.007504
AU2447   AU        0.069408    0.338751    0.555810     0.007504
AU2448   AU        0.106701    0.300683    0.564026     0.007504
AU2449   AU        0.110071    0.331522    0.520364     0.007504
AU2450   AU        0.145085    0.296166    0.524196     0.007504
AU2451   AU        0.143695    0.331238    0.558998     0.007504
AU2452   AU        0.184409    0.300965    0.555123     0.007504
AU2453   AU        0.180776    0.331905    0.525937     0.007504
AU2454   AU        0.224459    0.305864    0.523215     0.007504
AU2455   AU        0.221250    0.337750    0.555783     0.007504
AU2456   AU        0.258879    0.304885    0.559279     0.007504
AU2457   AU        0.258500    0.344699    0.528748     0.007504
NI2458   NI        0.274654    0.306444    0.512717     0.004307
AU2459   AU        0.297838    0.342400    0.564443     0.007504
NI2460   NI        0.318105    0.301965    0.555653     0.004307
NI2461   NI        0.353985    0.337089    0.526608     0.004307
NI2462   NI        0.347589    0.285530    0.490262     0.004307
NI2463   NI        0.377734    0.359990    0.564517     0.004307
AU2464   AU        0.377344    0.259282    0.547997     0.007504
NI2465   NI        0.386942    0.330390    0.499733     0.004307
NI2466   NI        0.401494    0.296363    0.526716     0.004307
AU2467   AU        0.425107    0.334318    0.544033     0.007504
NI2468   NI        0.471217    0.325757    0.542324     0.004307
NI2469   NI        0.462090    0.334264    0.493682     0.004307
NI2470   NI        0.507113    0.306555    0.547622     0.004307
NI2471   NI        0.487273    0.320429    0.580202     0.004307
NI2472   NI        0.546225    0.278243    0.538157     0.004307
NI2473   NI        0.554691    0.325148    0.541509     0.004307
NI2474   NI        0.591581    0.302501    0.492407     0.004307
NI2475   NI        0.599094    0.319218    0.530318     0.004307
NI2476   NI        0.635430    0.315981    0.557416     0.004307
AU2477   AU        0.622828    0.336877    0.487847     0.007504
NI2478   NI        0.633537    0.300708    0.512619     0.004307
NI2479   NI        0.625206    0.373987    0.526619     0.004307
NI2480   NI        0.683443    0.292568    0.549999     0.004307
NI2481   NI        0.683472    0.334612    0.496807     0.004307
AU2482   AU        0.725776    0.281285    0.520517     0.007504
NI2483   NI        0.719414    0.323624    0.535001     0.004307
AU2484   AU        0.750972    0.293575    0.560506     0.007504
AU2485   AU        0.749089    0.358868    0.511877     0.007504
AU2486   AU        0.765394    0.311068    0.517027     0.007504
AU2487   AU        0.791411    0.311566    0.557353     0.007504
NI2488   NI        0.812680    0.277094    0.532805     0.004307
NI2489   NI        0.834280    0.325389    0.513592     0.004307
NI2490   NI        0.036316    0.379942    0.540950     0.004307
NI2491   NI        0.041684    0.414253    0.511272     0.004307
AU2492   AU        0.074536    0.369007    0.516907     0.007504
AU2493   AU        0.075858    0.409305    0.547615     0.007504
AU2494   AU        0.108562    0.370302    0.553799     0.007504
AU2495   AU        0.113656    0.404703    0.518785     0.007504
AU2496   AU        0.143521    0.367328    0.525183     0.007504
AU2497   AU        0.147451    0.408317    0.557455     0.007504
AU2498   AU        0.181787    0.370833    0.555913     0.007504
AU2499   AU        0.177902    0.401127    0.515778     0.007504
AU2500   AU        0.214997    0.367887    0.516486     0.007504
NI2501   NI        0.223252    0.400442    0.563758     0.004307
AU2502   AU        0.260332    0.372264    0.569336     0.007504
NI2503   NI        0.244235    0.403839    0.516046     0.004307
NI2504   NI        0.287878    0.382844    0.534811     0.004307
NI2505   NI        0.269703    0.423141    0.570075     0.004307
AU2506   AU        0.334656    0.373880    0.552808     0.007504
NI2507   NI        0.321746    0.420179    0.541235     0.004307
NI2508   NI        0.376465    0.377566    0.519730     0.004307
NI2509   NI        0.370736    0.424718    0.523335     0.004307
NI2510   NI        0.416221    0.380937    0.544115     0.004307
NI2511   NI        0.405805    0.398903    0.500934     0.004307
NI2512   NI        0.420186    0.357908    0.504090     0.004307
NI2513   NI        0.456195    0.403294    0.548979     0.004307
NI2514   NI        0.464396    0.367970    0.527184     0.004307
NI2515   NI        0.456344    0.380008    0.486048     0.004307
NI2516   NI        0.507246    0.349083    0.501350     0.004307
NI2517   NI        0.507539    0.353251    0.545443     0.004307
NI2518   NI        0.547478    0.372438    0.512704     0.004307
NI2519   NI        0.521013    0.419761    0.531814     0.004307
NI2520   NI        0.582894    0.357619    0.495735     0.004307
NI2521   NI        0.569627    0.383316    0.555937     0.004307
NI2522   NI        0.600241    0.352113    0.561215     0.004307
NI2523   NI        0.601258    0.405938    0.499452     0.004307
NI2524   NI        0.665364    0.387280    0.548769     0.004307
NI2525   NI        0.642613    0.419932    0.566312     0.004307
NI2526   NI        0.680221    0.343017    0.541351     0.004307
NI2527   NI        0.681773    0.429206    0.527662     0.004307
NI2528   NI        0.710629    0.373265    0.534524     0.004307
AU2529   AU        0.731505    0.406525    0.572119     0.007504
AU2530   AU        0.756848    0.346852    0.551998     0.007504
AU2531   AU        0.768926    0.394450    0.543504     0.007504
AU2532   AU        0.797098    0.352517    0.524260     0.007504
NI2533   NI        0.829362    0.391366    0.523423     0.004307
NI2534   NI        0.828093    0.371126    0.561198     0.004307
NI2535   NI        0.863669    0.439105    0.493263     0.004307
NI2536   NI        0.008692    0.463573    0.523700     0.004307
AU2537   AU        0.045856    0.449176    0.545229     0.007504
NI2538   NI        0.041946    0.468686    0.500900     0.004307
AU2539   AU        0.084434    0.444782    0.517906     0.007504
AU2540   AU        0.080101    0.482904    0.549871     0.007504
AU2541   AU        0.116479    0.446078    0.555357     0.007504
NI2542   NI        0.116615    0.484070    0.525048     0.004307
NI2543   NI        0.146400    0.441898    0.515383     0.004307
NI2544   NI        0.153075    0.477535    0.557797     0.004307
NI2545   NI        0.187837    0.423657    0.552316     0.004307
NI2546   NI        0.157458    0.484577    0.514454     0.004307
NI2547   NI        0.195671    0.460418    0.535940     0.004307
NI2548   NI        0.223422    0.500709    0.547992     0.004307
NI2549   NI        0.252069    0.463476    0.540888     0.004307
NI2550   NI        0.231662    0.443805    0.501378     0.004307
NI2551   NI        0.284464    0.435020    0.532277     0.004307
NI2552   NI        0.291899    0.462358    0.565794     0.004307
NI2553   NI        0.349033    0.437661    0.577564     0.004307
NI2554   NI        0.332062    0.462714    0.548725     0.004307
NI2555   NI        0.388755    0.450661    0.485501     0.004307
NI2556   NI        0.358930    0.478777    0.512567     0.004307
NI2557   NI        0.408847    0.465213    0.534623     0.004307
NI2558   NI        0.423474    0.479942    0.499130     0.004307
NI2559   NI        0.438990    0.421515    0.514388     0.004307
NI2560   NI        0.447308    0.477869    0.543212     0.004307
NI2561   NI        0.503044    0.404394    0.568439     0.004307
NI2562   NI        0.479998    0.467848    0.504981     0.004307
NI2563   NI        0.486295    0.414385    0.509750     0.004307
NI2564   NI        0.487367    0.482951    0.566158     0.004307
NI2565   NI        0.519322    0.452923    0.556344     0.004307
NI2566   NI        0.553748    0.481023    0.529489     0.004307
NI2567   NI        0.564575    0.422110    0.522006     0.004307
NI2568   NI        0.586075    0.483415    0.586187     0.004307
NI2569   NI        0.607084    0.417940    0.547077     0.004307
NI2570   NI        0.598447    0.461419    0.519150     0.004307
NI2571   NI        0.667406    0.494781    0.515041     0.004307
NI2572   NI        0.628066    0.496542    0.559868     0.004307
NI2573   NI        0.709927    0.445935    0.561809     0.004307
NI2574   NI        0.723143    0.446656    0.519884     0.004307
AU2575   AU        0.769803    0.435588    0.513170     0.007504
AU2576   AU        0.729240    0.484146    0.563688     0.007504
AU2577   AU        0.764537    0.446252    0.561398     0.007504
AU2578   AU        0.755385    0.480454    0.525918     0.007504
AU2579   AU        0.818743    0.437347    0.509109     0.007504
AU2580   AU        0.802274    0.469820    0.535774     0.007504
NI2581   NI        0.846630    0.416292    0.577713     0.004307
NI2582   NI        0.841857    0.478528    0.501861     0.004307
NI2583   NI        0.846321    0.451876    0.550715     0.004307
NI2584   NI        0.051123    0.524504    0.555304     0.004307
NI2585   NI        0.026557    0.589367    0.519263     0.004307
AU2586   AU        0.059200    0.510860    0.512269     0.007504
AU2587   AU        0.076657    0.558403    0.552624     0.007504
AU2588   AU        0.113065    0.522553    0.552041     0.007504
AU2589   AU        0.110343    0.560600    0.520797     0.007504
NI2590   NI        0.160580    0.528277    0.504685     0.004307
AU2591   AU        0.145651    0.559046    0.557638     0.007504
NI2592   NI        0.168458    0.518837    0.547180     0.004307
NI2593   NI        0.185834    0.558430    0.531527     0.004307
NI2594   NI        0.200663    0.506515    0.507259     0.004307
NI2595   NI        0.218323    0.565631    0.559761     0.004307
NI2596   NI        0.275965    0.501757    0.575599     0.004307
NI2597   NI        0.235225    0.535715    0.513941     0.004307
NI2598   NI        0.284643    0.518630    0.536742     0.004307
NI2599   NI        0.297950    0.573479    0.545378     0.004307
NI2600   NI        0.327897    0.504819    0.545566     0.004307
NI2601   NI        0.323322    0.549283    0.520101     0.004307
NI2602   NI        0.360551    0.525174    0.526253     0.004307
NI2603   NI        0.348781    0.550991    0.560721     0.004307
NI2604   NI        0.400651    0.507458    0.526392     0.004307
AU2605   AU        0.398350    0.553791    0.498139     0.007504
NI2606   NI        0.442514    0.526807    0.532008     0.004307
NI2607   NI        0.463749    0.579179    0.563416     0.004307
NI2608   NI        0.456749    0.513063    0.572401     0.004307
NI2609   NI        0.437137    0.576064    0.526933     0.004307
NI2610   NI        0.483394    0.512497    0.520703     0.004307
AU2611   AU        0.493143    0.550321    0.573855     0.007504
NI2612   NI        0.561332    0.517201    0.561636     0.004307
NI2613   NI        0.553130    0.529590    0.512014     0.004307
NI2614   NI        0.578381    0.498042    0.499773     0.004307
NI2615   NI        0.587966    0.565104    0.548451     0.004307
NI2616   NI        0.604992    0.526118    0.535818     0.004307
NI2617   NI        0.618350    0.574415    0.522158     0.004307
NI2618   NI        0.644378    0.534494    0.518770     0.004307
NI2619   NI        0.657897    0.557915    0.552811     0.004307
NI2620   NI        0.681320    0.515955    0.549614     0.004307
NI2621   NI        0.706939    0.534657    0.510078     0.004307
NI2622   NI        0.709909    0.488110    0.512288     0.004307
NI2623   NI        0.709448    0.552463    0.549113     0.004307
AU2624   AU        0.744747    0.532691    0.543336     0.007504
AU2625   AU        0.768191    0.563296    0.510603     0.007504
AU2626   AU        0.788826    0.516184    0.529126     0.007504
AU2627   AU        0.782738    0.557831    0.554427     0.007504
NI2628   NI        0.822383    0.530362    0.581017     0.004307
NI2629   NI        0.815940    0.557165    0.525771     0.004307
NI2630   NI        0.032710    0.569144    0.568500     0.004307
NI2631   NI        0.047213    0.689738    0.450475     0.004307
AU2632   AU        0.075649    0.599242    0.516106     0.007504
NI2633   NI        0.064838    0.632707    0.550867     0.004307
AU2634   AU        0.111198    0.595613    0.552851     0.007504
AU2635   AU        0.113558    0.627411    0.512085     0.007504
AU2636   AU        0.143926    0.593280    0.516320     0.007504
AU2637   AU        0.147895    0.628926    0.546734     0.007504
AU2638   AU        0.180043    0.594740    0.554216     0.007504
AU2639   AU        0.185498    0.621318    0.510332     0.007504
NI2640   NI        0.224016    0.590863    0.518547     0.004307
AU2641   AU        0.219756    0.625976    0.551679     0.007504
NI2642   NI        0.259266    0.579356    0.569686     0.004307
NI2643   NI        0.262449    0.610978    0.534975     0.004307
NI2644   NI        0.273793    0.586315    0.502629     0.004307
NI2645   NI        0.299660    0.615294    0.566091     0.004307
NI2646   NI        0.338069    0.609856    0.540656     0.004307
NI2647   NI        0.347215    0.648251    0.493639     0.004307
AU2648   AU        0.365483    0.579155    0.520260     0.007504
NI2649   NI        0.380211    0.613034    0.544549     0.004307
AU2650   AU        0.393271    0.550184    0.547897     0.007504
NI2651   NI        0.442134    0.639413    0.509768     0.004307
NI2652   NI        0.427025    0.597331    0.492423     0.004307
NI2653   NI        0.436033    0.662340    0.543236     0.004307
NI2654   NI        0.424405    0.611425    0.546849     0.004307
NI2655   NI        0.485875    0.614528    0.498613     0.004307
NI2656   NI        0.491367    0.571439    0.523418     0.004307
NI2657   NI        0.469053    0.616108    0.540705     0.004307
NI2658   NI        0.526631    0.554461    0.542013     0.004307
NI2659   NI        0.512367    0.609838    0.531616     0.004307
NI2660   NI        0.579601    0.576765    0.505730     0.004307
NI2661   NI        0.554091    0.590859    0.543267     0.004307
NI2662   NI        0.590673    0.624681    0.526427     0.004307
NI2663   NI        0.617398    0.607402    0.495860     0.004307
NI2664   NI        0.668207    0.570135    0.510837     0.004307
NI2665   NI        0.641439    0.607064    0.538830     0.004307
NI2666   NI        0.699440    0.591514    0.544878     0.004307
AU2667   AU        0.688469    0.614901    0.508018     0.007504
AU2668   AU        0.720280    0.575610    0.503460     0.007504
AU2669   AU        0.716244    0.630494    0.549546     0.007504
AU2670   AU        0.746277    0.589561    0.544153     0.007504
AU2671   AU        0.759506    0.608698    0.496912     0.007504
AU2672   AU        0.793221    0.594268    0.531337     0.007504
NI2673   NI        0.817783    0.624094    0.559970     0.004307
NI2674   NI        0.835384    0.517412    0.515589     0.004307
NI2675   NI        0.841149    0.607639    0.527611     0.004307
NI2676   NI        0.096497    0.674120    0.586380     0.004307
NI2677   NI        0.095473    0.669413    0.545206     0.004307
NI2678   NI        0.105790    0.703323    0.525396     0.004307
AU2679   AU        0.150283    0.658516    0.504426     0.007504
AU2680   AU        0.146646    0.689352    0.536341     0.007504
AU2681   AU        0.187401    0.659437    0.540839     0.007504
AU2682   AU        0.188266    0.690928    0.503028     0.007504
AU2683   AU        0.223152    0.654083    0.507906     0.007504
AU2684   AU        0.222157    0.696075    0.542085     0.007504
AU2685   AU        0.257645    0.658110    0.544701     0.007504
AU2686   AU        0.260108    0.692331    0.504666     0.007504
NI2687   NI        0.283168    0.655735    0.504150     0.004307
AU2688   AU        0.293557    0.694724    0.542504     0.007504
NI2689   NI        0.315557    0.659418    0.545599     0.004307
NI2690   NI        0.326869    0.685658    0.510050     0.004307
NI2691   NI        0.374801    0.678628    0.506486     0.004307
NI2692   NI        0.351578    0.707925    0.542810     0.004307
NI2693   NI        0.402181    0.683063    0.560559     0.004307
NI2694   NI        0.392675    0.738251    0.497227     0.004307
NI2695   NI        0.411203    0.699058    0.501473     0.004307
AU2696   AU        0.439347    0.710668    0.565213     0.007504
NI2697   NI        0.476374    0.673794    0.570251     0.004307
NI2698   NI        0.470479    0.701322    0.528527     0.004307
NI2699   NI        0.479932    0.656309    0.507486     0.004307
AU2700   AU        0.510111    0.707287    0.558765     0.007504
AU2701   AU        0.513150    0.656622    0.545160     0.007504
AU2702   AU        0.545544    0.688319    0.516963     0.007504
NI2703   NI        0.555385    0.645791    0.537423     0.004307
AU2704   AU        0.581680    0.699040    0.551304     0.007504
AU2705   AU        0.618580    0.649902    0.548526     0.007504
AU2706   AU        0.617289    0.690346    0.515747     0.007504
NI2707   NI        0.645289    0.645321    0.505790     0.004307
AU2708   AU        0.649350    0.685561    0.550742     0.007504
AU2709   AU        0.669629    0.640795    0.551277     0.007504
AU2710   AU        0.693051    0.694807    0.503264     0.007504
AU2711   AU        0.727475    0.650691    0.506412     0.007504
AU2712   AU        0.703052    0.678570    0.549122     0.007504
NI2713   NI        0.748665    0.673804    0.548599     0.004307
NI2714   NI        0.776812    0.686354    0.498390     0.004307
AU2715   AU        0.766851    0.635203    0.538982     0.007504
NI2716   NI        0.144097    0.752267    0.531645     0.004307
AU2717   AU        0.180688    0.720956    0.538360     0.007504
AU2718   AU        0.166628    0.736462    0.493748     0.007504
AU2719   AU        0.218968    0.749614    0.540447     0.007504
NI2720   NI        0.187452    0.783455    0.544631     0.004307
AU2721   AU        0.259332    0.728015    0.540894     0.007504
AU2722   AU        0.255585    0.758968    0.503186     0.007504
AU2723   AU        0.294749    0.730384    0.504990     0.007504
AU2724   AU        0.277914    0.771652    0.544195     0.007504
AU2725   AU        0.315449    0.740497    0.550778     0.007504
AU2726   AU        0.317967    0.769568    0.509207     0.007504
NI2727   NI        0.356375    0.716628    0.499738     0.004307
AU2728   AU        0.353946    0.758735    0.540776     0.007504
AU2729   AU        0.395406    0.729147    0.550701     0.007504
AU2730   AU        0.394107    0.773177    0.536883     0.007504
AU2731   AU        0.431901    0.736245    0.523845     0.007504
AU2732   AU        0.435318    0.763876    0.558779     0.007504
AU2733   AU        0.472507    0.740314    0.560038     0.007504
AU2734   AU        0.471749    0.762920    0.521647     0.007504
AU2735   AU        0.509733    0.728419    0.517192     0.007504
AU2736   AU        0.512141    0.762554    0.553757     0.007504
AU2737   AU        0.549312    0.731947    0.549235     0.007504
AU2738   AU        0.546614    0.762921    0.518934     0.007504
AU2739   AU        0.582486    0.727209    0.515870     0.007504
AU2740   AU        0.587228    0.763976    0.551997     0.007504
AU2741   AU        0.625277    0.726299    0.554806     0.007504
AU2742   AU        0.621412    0.758140    0.517477     0.007504
AU2743   AU        0.656807    0.723821    0.516424     0.007504
AU2744   AU        0.663604    0.762774    0.545668     0.007504
AU2745   AU        0.680425    0.716763    0.552018     0.007504
AU2746   AU        0.703505    0.743267    0.515831     0.007504
NI2747   NI        0.746455    0.714965    0.527563     0.004307
NI2748   NI        0.195505    0.778451    0.505478     0.004307
NI2749   NI        0.299714    0.821178    0.590011     0.004307
NI2750   NI        0.241784    0.796423    0.524757     0.004307
AU2751   AU        0.285106    0.801095    0.505222     0.007504
NI2752   NI        0.276920    0.831484    0.536031     0.004307
AU2753   AU        0.318461    0.793407    0.545444     0.007504
AU2754   AU        0.320248    0.835493    0.509691     0.007504
AU2755   AU        0.356521    0.802763    0.517539     0.007504
NI2756   NI        0.357995    0.865727    0.515165     0.004307
AU2757   AU        0.406708    0.809514    0.563794     0.007504
AU2758   AU        0.396763    0.829727    0.520075     0.007504
AU2759   AU        0.434618    0.795712    0.522731     0.007504
NI2760   NI        0.436550    0.841472    0.583138     0.004307
AU2761   AU        0.472382    0.794575    0.558227     0.007504
AU2762   AU        0.470856    0.829478    0.522179     0.007504
AU2763   AU        0.509459    0.799632    0.522604     0.007504
NI2764   NI        0.528475    0.844840    0.540018     0.004307
AU2765   AU        0.548620    0.797899    0.553927     0.007504
NI2766   NI        0.556793    0.839087    0.503293     0.004307
AU2767   AU        0.585106    0.795550    0.517083     0.007504
NI2768   NI        0.591158    0.820471    0.557438     0.004307
NI2769   NI        0.625778    0.796095    0.557010     0.004307
NI2770   NI        0.597802    0.860247    0.482725     0.004307
NI2771   NI        0.662210    0.771519    0.504034     0.004307
NI2772   NI        0.435419    0.852404    0.528212     0.004307
NI2773   NI        0.345473    0.064012    0.597332     0.004307
NI2774   NI        0.384541    0.057465    0.618991     0.004307
NI2775   NI        0.367392    0.024132    0.567496     0.004307
NI2776   NI        0.466339    0.028468    0.563442     0.004307
NI2777   NI        0.492342    0.054070    0.596616     0.004307
NI2778   NI        0.512473    0.005930    0.602042     0.004307
NI2779   NI        0.534474    0.048269    0.576563     0.004307
NI2780   NI        0.186130    0.101988    0.554660     0.004307
NI2781   NI        0.205876    0.081314    0.589635     0.004307
NI2782   NI        0.271461    0.067303    0.625991     0.004307
NI2783   NI        0.250708    0.101612    0.596226     0.004307
NI2784   NI        0.289179    0.074700    0.584515     0.004307
NI2785   NI        0.279060    0.110741    0.642715     0.004307
NI2786   NI        0.316850    0.079684    0.642277     0.004307
AU2787   AU        0.320012    0.108160    0.603019     0.007504
AU2788   AU        0.366279    0.104096    0.579598     0.007504
AU2789   AU        0.360451    0.102286    0.631981     0.007504
NI2790   NI        0.411132    0.085973    0.600694     0.004307
AU2791   AU        0.402023    0.136743    0.587481     0.007504
AU2792   AU        0.444302    0.103603    0.578043     0.007504
AU2793   AU        0.435973    0.121289    0.622033     0.007504
AU2794   AU        0.471339    0.085692    0.618870     0.007504
AU2795   AU        0.491204    0.121971    0.590584     0.007504
AU2796   AU        0.526057    0.086454    0.602103     0.007504
AU2797   AU        0.508707    0.116798    0.629969     0.007504
NI2798   NI        0.562846    0.092593    0.639403     0.004307
AU2799   AU        0.564550    0.115133    0.594908     0.007504
AU2800   AU        0.595750    0.089905    0.569568     0.007504
NI2801   NI        0.608019    0.100713    0.614878     0.004307
NI2802   NI        0.573656    0.067887    0.605507     0.004307
AU2803   AU        0.612036    0.136801    0.580141     0.007504
NI2804   NI        0.659770    0.134632    0.620290     0.004307
NI2805   NI        0.696831    0.127290    0.593594     0.004307
NI2806   NI        0.110282    0.210474    0.580260     0.004307
NI2807   NI        0.144917    0.169414    0.589143     0.004307
NI2808   NI        0.155887    0.190687    0.628183     0.004307
NI2809   NI        0.191357    0.147650    0.611130     0.004307
AU2810   AU        0.190706    0.188360    0.584314     0.007504
AU2811   AU        0.229334    0.154295    0.593637     0.007504
AU2812   AU        0.225149    0.191276    0.624674     0.007504
AU2813   AU        0.245839    0.146757    0.640237     0.007504
AU2814   AU        0.261447    0.190813    0.591668     0.007504
AU2815   AU        0.278422    0.142864    0.604113     0.007504
AU2816   AU        0.282539    0.182274    0.636801     0.007504
NI2817   NI        0.322458    0.174561    0.612553     0.004307
NI2818   NI        0.349159    0.187750    0.575206     0.004307
AU2819   AU        0.351489    0.143831    0.607574     0.007504
AU2820   AU        0.379123    0.184605    0.608613     0.007504
AU2821   AU        0.392028    0.144707    0.638191     0.007504
NI2822   NI        0.401167    0.181172    0.565982     0.004307
NI2823   NI        0.449896    0.146324    0.582437     0.004307
AU2824   AU        0.424506    0.172335    0.612662     0.007504
AU2825   AU        0.474915    0.153981    0.625376     0.007504
NI2826   NI        0.466102    0.189919    0.601611     0.004307
AU2827   AU        0.529886    0.148663    0.592826     0.007504
AU2828   AU        0.516581    0.183691    0.626518     0.007504
AU2829   AU        0.552490    0.147742    0.636898     0.007504
NI2830   NI        0.533893    0.198990    0.578626     0.004307
AU2831   AU        0.571290    0.163932    0.591685     0.007504
AU2832   AU        0.579906    0.188163    0.634255     0.007504
AU2833   AU        0.616228    0.160634    0.620554     0.007504
AU2834   AU        0.617749    0.184161    0.577366     0.007504
AU2835   AU        0.657290    0.156530    0.583724     0.007504
AU2836   AU        0.658039    0.183979    0.623777     0.007504
NI2837   NI        0.700599    0.174566    0.637143     0.004307
AU2838   AU        0.703805    0.174560    0.591592     0.007504
NI2839   NI        0.731930    0.143204    0.565590     0.004307
NI2840   NI        0.736476    0.214370    0.639391     0.004307
NI2841   NI        0.771170    0.157170    0.529545     0.004307
NI2842   NI        0.104105    0.260066    0.657574     0.004307
NI2843   NI        0.103993    0.173304    0.621055     0.004307
AU2844   AU        0.116644    0.255655    0.586306     0.007504
AU2845   AU        0.154522    0.222072    0.588633     0.007504
AU2846   AU        0.152508    0.257406    0.625917     0.007504
AU2847   AU        0.187572    0.222942    0.625824     0.007504
AU2848   AU        0.185917    0.262919    0.591313     0.007504
AU2849   AU        0.224926    0.227471    0.587343     0.007504
AU2850   AU        0.219922    0.261965    0.625361     0.007504
AU2851   AU        0.257849    0.226589    0.631300     0.007504
AU2852   AU        0.257430    0.264935    0.591808     0.007504
NI2853   NI        0.293748    0.214808    0.605774     0.004307
NI2854   NI        0.300056    0.254425    0.616019     0.004307
NI2855   NI        0.344669    0.224057    0.608698     0.004307
NI2856   NI        0.344468    0.266282    0.587062     0.004307
NI2857   NI        0.374626    0.225332    0.575060     0.004307
NI2858   NI        0.371960    0.286410    0.634871     0.004307
NI2859   NI        0.404132    0.253518    0.640923     0.004307
NI2860   NI        0.382527    0.262690    0.603824     0.004307
NI2861   NI        0.414564    0.241662    0.576408     0.004307
NI2862   NI        0.445834    0.240358    0.616905     0.004307
NI2863   NI        0.488478    0.222645    0.625942     0.004307
NI2864   NI        0.452063    0.262657    0.579703     0.004307
NI2865   NI        0.490645    0.224559    0.584515     0.004307
NI2866   NI        0.508644    0.262017    0.616422     0.004307
AU2867   AU        0.553444    0.222358    0.634251     0.007504
NI2868   NI        0.537386    0.255098    0.576449     0.004307
AU2869   AU        0.579834    0.216406    0.592696     0.007504
NI2870   NI        0.572041    0.265930    0.623327     0.004307
AU2871   AU        0.620967    0.216363    0.618544     0.007504
NI2872   NI        0.604137    0.264207    0.595555     0.004307
AU2873   AU        0.659044    0.211902    0.585906     0.007504
AU2874   AU        0.649841    0.254683    0.617351     0.007504
AU2875   AU        0.692178    0.220572    0.616997     0.007504
AU2876   AU        0.689749    0.251156    0.580152     0.007504
AU2877   AU        0.734239    0.219011    0.588904     0.007504
AU2878   AU        0.733144    0.255099    0.622082     0.007504
NI2879   NI        0.777535    0.229874    0.610616     0.004307
NI2880   NI        0.786435    0.254847    0.571827     0.004307
NI2881   NI        0.784354    0.253746    0.646443     0.004307
NI2882   NI        0.029700    0.351382    0.575682     0.004307
NI2883   NI        0.071036    0.301880    0.593740     0.004307
NI2884   NI        0.103404    0.324754    0.643331     0.004307
AU2885   AU        0.114469    0.292224    0.619110     0.007504
AU2886   AU        0.102968    0.340533    0.594042     0.007504
AU2887   AU        0.149947    0.293973    0.590722     0.007504
AU2888   AU        0.144586    0.331995    0.623886     0.007504
AU2889   AU        0.184782    0.300443    0.626058     0.007504
AU2890   AU        0.182301    0.334709    0.590948     0.007504
AU2891   AU        0.218704    0.300880    0.591277     0.007504
AU2892   AU        0.219040    0.338161    0.631612     0.007504
AU2893   AU        0.253893    0.299193    0.626887     0.007504
AU2894   AU        0.258203    0.334256    0.591293     0.007504
AU2895   AU        0.296282    0.298223    0.595593     0.007504
AU2896   AU        0.296952    0.333108    0.621983     0.007504
NI2897   NI        0.338870    0.305535    0.618429     0.004307
AU2898   AU        0.334995    0.339830    0.590503     0.007504
NI2899   NI        0.368187    0.305512    0.557827     0.004307
NI2900   NI        0.376990    0.322100    0.597698     0.004307
NI2901   NI        0.446802    0.304352    0.578650     0.004307
NI2902   NI        0.416595    0.337680    0.588932     0.004307
AU2903   AU        0.406293    0.292237    0.572099     0.007504
NI2904   NI        0.425220    0.331299    0.635330     0.004307
NI2905   NI        0.467611    0.282595    0.615864     0.004307
NI2906   NI        0.463960    0.332440    0.611213     0.004307
NI2907   NI        0.532899    0.318844    0.580490     0.004307
NI2908   NI        0.521257    0.342234    0.617691     0.004307
NI2909   NI        0.540719    0.303761    0.623443     0.004307
NI2910   NI        0.542603    0.361989    0.585764     0.004307
NI2911   NI        0.576456    0.292457    0.565786     0.004307
AU2912   AU        0.572183    0.339351    0.627236     0.007504
NI2913   NI        0.608523    0.302557    0.630552     0.004307
NI2914   NI        0.613000    0.339061    0.604242     0.004307
NI2915   NI        0.644324    0.301318    0.598328     0.004307
NI2916   NI        0.649483    0.340845    0.633264     0.004307
AU2917   AU        0.692591    0.273820    0.617038     0.007504
NI2918   NI        0.663006    0.338501    0.587803     0.004307
AU2919   AU        0.708021    0.303161    0.583624     0.007504
AU2920   AU        0.718037    0.331827    0.623036     0.007504
NI2921   NI        0.755550    0.294391    0.629911     0.004307
AU2922   AU        0.756937    0.324516    0.591585     0.007504
NI2923   NI        0.788951    0.285119    0.598691     0.004307
NI2924   NI        0.791656    0.332139    0.617533     0.004307
NI2925   NI        0.820740    0.330578    0.582740     0.004307
NI2926   NI        0.031396    0.385489    0.622286     0.004307
NI2927   NI        0.035544    0.416583    0.581478     0.004307
AU2928   AU        0.069922    0.377862    0.586905     0.007504
AU2929   AU        0.078922    0.407780    0.625079     0.007504
AU2930   AU        0.113539    0.371763    0.631564     0.007504
AU2931   AU        0.108357    0.405865    0.587077     0.007504
AU2932   AU        0.143403    0.369658    0.590696     0.007504
AU2933   AU        0.148453    0.408587    0.620818     0.007504
AU2934   AU        0.177611    0.368262    0.626492     0.007504
NI2935   NI        0.183280    0.404922    0.591504     0.004307
AU2936   AU        0.219738    0.369893    0.597303     0.007504
NI2937   NI        0.209470    0.431827    0.639808     0.004307
AU2938   AU        0.259765    0.367299    0.625785     0.007504
NI2939   NI        0.239838    0.413045    0.604614     0.004307
AU2940   AU        0.305528    0.375298    0.593069     0.007504
NI2941   NI        0.275781    0.405124    0.642028     0.004307
AU2942   AU        0.335769    0.369374    0.628148     0.007504
NI2943   NI        0.310978    0.415487    0.609131     0.004307
NI2944   NI        0.362750    0.399943    0.587589     0.004307
NI2945   NI        0.372533    0.404258    0.628816     0.004307
NI2946   NI        0.410961    0.375286    0.610442     0.004307
NI2947   NI        0.402078    0.412005    0.567225     0.004307
NI2948   NI        0.458604    0.355804    0.570894     0.004307
NI2949   NI        0.421833    0.413513    0.616981     0.004307
NI2950   NI        0.452883    0.376272    0.617879     0.004307
NI2951   NI        0.467796    0.411247    0.593757     0.004307
NI2952   NI        0.492720    0.374068    0.594403     0.004307
AU2953   AU        0.504297    0.410948    0.623071     0.007504
AU2954   AU        0.541624    0.378495    0.626377     0.007504
AU2955   AU        0.545703    0.417108    0.593181     0.007504
AU2956   AU        0.582037    0.377134    0.596992     0.007504
AU2957   AU        0.579863    0.415880    0.628202     0.007504
AU2958   AU        0.619356    0.379512    0.626069     0.007504
NI2959   NI        0.615045    0.416279    0.603934     0.004307
NI2960   NI        0.646764    0.383110    0.589221     0.004307
AU2961   AU        0.658081    0.413504    0.627289     0.007504
AU2962   AU        0.684998    0.367551    0.619988     0.007504
NI2963   NI        0.688789    0.419401    0.585577     0.004307
AU2964   AU        0.712045    0.348590    0.576471     0.007504
AU2965   AU        0.709372    0.405297    0.620949     0.007504
AU2966   AU        0.745517    0.370943    0.608084     0.007504
AU2967   AU        0.774945    0.411576    0.595921     0.007504
AU2968   AU        0.788879    0.361351    0.578798     0.007504
NI2969   NI        0.831585    0.435866    0.624230     0.004307
NI2970   NI        0.809208    0.385079    0.610918     0.004307
AU2971   AU        0.804565    0.419724    0.552365     0.007504
NI2972   NI        0.038333    0.447755    0.620223     0.004307
NI2973   NI        0.043760    0.483718    0.581460     0.004307
AU2974   AU        0.077731    0.445379    0.586285     0.007504
AU2975   AU        0.078058    0.481734    0.618023     0.007504
AU2976   AU        0.113320    0.445470    0.619596     0.007504
AU2977   AU        0.114039    0.482824    0.588979     0.007504
AU2978   AU        0.152989    0.447768    0.591761     0.007504
AU2979   AU        0.150810    0.485496    0.623558     0.007504
NI2980   NI        0.195982    0.471975    0.622271     0.004307
NI2981   NI        0.187709    0.497667    0.583536     0.004307
NI2982   NI        0.221028    0.469682    0.580440     0.004307
NI2983   NI        0.229961    0.503312    0.611620     0.004307
NI2984   NI        0.246401    0.464728    0.620940     0.004307
NI2985   NI        0.255449    0.540187    0.557553     0.004307
NI2986   NI        0.283693    0.446481    0.604976     0.004307
NI2987   NI        0.292393    0.485057    0.616617     0.004307
NI2988   NI        0.336960    0.442854    0.626564     0.004307
NI2989   NI        0.364993    0.488687    0.554968     0.004307
NI2990   NI        0.402504    0.452983    0.587941     0.004307
NI2991   NI        0.380360    0.488893    0.613263     0.004307
NI2992   NI        0.386641    0.443237    0.633250     0.004307
NI2993   NI        0.406916    0.501525    0.569692     0.004307
NI2994   NI        0.466510    0.444274    0.564838     0.004307
NI2995   NI        0.452300    0.503704    0.637639     0.004307
NI2996   NI        0.463612    0.445929    0.621593     0.004307
NI2997   NI        0.445094    0.474623    0.588608     0.004307
AU2998   AU        0.502970    0.449326    0.597003     0.007504
AU2999   AU        0.497107    0.475704    0.640313     0.007504
AU3000   AU        0.540836    0.452647    0.628542     0.007504
AU3001   AU        0.534488    0.488046    0.593079     0.007504
NI3002   NI        0.572712    0.443559    0.569582     0.004307
AU3003   AU        0.570216    0.493197    0.625013     0.007504
NI3004   NI        0.611743    0.454671    0.622355     0.004307
NI3005   NI        0.621717    0.457500    0.579138     0.004307
NI3006   NI        0.655673    0.458131    0.553125     0.004307
NI3007   NI        0.647473    0.493585    0.624647     0.004307
AU3008   AU        0.690784    0.451922    0.622299     0.007504
NI3009   NI        0.686681    0.487916    0.590657     0.004307
AU3010   AU        0.735622    0.446020    0.605387     0.007504
AU3011   AU        0.722425    0.491533    0.629544     0.007504
AU3012   AU        0.773905    0.451568    0.624778     0.007504
AU3013   AU        0.758266    0.486224    0.597782     0.007504
NI3014   NI        0.798442    0.452040    0.589648     0.004307
AU3015   AU        0.798650    0.498653    0.617662     0.007504
NI3016   NI        0.845591    0.448389    0.660709     0.004307
NI3017   NI        0.818026    0.486321    0.572973     0.004307
NI3018   NI        0.072502    0.497972    0.660592     0.004307
NI3019   NI        0.068435    0.559511    0.603201     0.004307
AU3020   AU        0.079950    0.519972    0.584624     0.007504
NI3021   NI        0.103756    0.567390    0.632057     0.004307
AU3022   AU        0.108545    0.519168    0.624474     0.007504
AU3023   AU        0.111248    0.560100    0.589519     0.007504
AU3024   AU        0.146888    0.520004    0.589784     0.007504
AU3025   AU        0.145052    0.560784    0.623800     0.007504
AU3026   AU        0.183379    0.521886    0.626235     0.007504
AU3027   AU        0.183047    0.560583    0.591255     0.007504
NI3028   NI        0.218832    0.529685    0.579024     0.004307
AU3029   AU        0.222002    0.554461    0.621407     0.007504
NI3030   NI        0.262822    0.543959    0.613144     0.004307
NI3031   NI        0.299481    0.541248    0.580025     0.004307
NI3032   NI        0.327334    0.469969    0.592383     0.004307
NI3033   NI        0.300852    0.560579    0.632130     0.004307
NI3034   NI        0.335182    0.524325    0.639934     0.004307
NI3035   NI        0.332929    0.587818    0.575940     0.004307
NI3036   NI        0.339603    0.513010    0.594510     0.004307
NI3037   NI        0.339869    0.557433    0.607539     0.004307
NI3038   NI        0.418722    0.517330    0.614558     0.004307
NI3039   NI        0.378379    0.527911    0.584965     0.004307
NI3040   NI        0.436095    0.551512    0.581002     0.004307
NI3041   NI        0.462995    0.545000    0.613197     0.004307
AU3042   AU        0.495080    0.510684    0.602879     0.007504
NI3043   NI        0.482651    0.586183    0.599411     0.004307
NI3044   NI        0.516082    0.512699    0.557175     0.004307
AU3045   AU        0.529231    0.584970    0.611275     0.007504
AU3046   AU        0.532092    0.513753    0.633792     0.007504
NI3047   NI        0.538669    0.535772    0.591280     0.004307
NI3048   NI        0.584037    0.531462    0.593334     0.004307
NI3049   NI        0.563732    0.550752    0.630483     0.004307
NI3050   NI        0.609180    0.513227    0.622562     0.004307
NI3051   NI        0.623272    0.570759    0.572377     0.004307
NI3052   NI        0.651115    0.525232    0.585859     0.004307
NI3053   NI        0.646901    0.560369    0.616494     0.004307
AU3054   AU        0.685550    0.527481    0.628826     0.007504
NI3055   NI        0.683740    0.553663    0.586265     0.004307
AU3056   AU        0.726537    0.523211    0.592967     0.007504
AU3057   AU        0.719875    0.562283    0.625647     0.007504
AU3058   AU        0.754477    0.529058    0.624701     0.007504
AU3059   AU        0.748536    0.561580    0.584071     0.007504
AU3060   AU        0.776549    0.520712    0.579809     0.007504
NI3061   NI        0.789955    0.569322    0.614153     0.004307
NI3062   NI        0.847142    0.479232    0.617984     0.004307
NI3063   NI        0.824217    0.577446    0.566058     0.004307
NI3064   NI        0.085856    0.598838    0.590165     0.004307
NI3065   NI        0.068219    0.666708    0.621009     0.004307
NI3066   NI        0.107513    0.630272    0.609532     0.004307
NI3067   NI        0.104244    0.634803    0.568608     0.004307
AU3068   AU        0.142545    0.599710    0.589391     0.007504
AU3069   AU        0.151134    0.639027    0.621726     0.007504
AU3070   AU        0.178412    0.598933    0.626930     0.007504
AU3071   AU        0.178894    0.633142    0.585734     0.007504
AU3072   AU        0.216932    0.597346    0.593522     0.007504
AU3073   AU        0.209515    0.637515    0.624484     0.007504
AU3074   AU        0.258113    0.591795    0.623419     0.007504
AU3075   AU        0.257345    0.624704    0.585676     0.007504
NI3076   NI        0.297334    0.587993    0.598801     0.004307
AU3077   AU        0.289653    0.630432    0.624102     0.007504
NI3078   NI        0.331438    0.602933    0.618047     0.004307
NI3079   NI        0.333165    0.640677    0.581794     0.004307
NI3080   NI        0.397666    0.581159    0.578213     0.004307
NI3081   NI        0.363129    0.627259    0.636585     0.004307
NI3082   NI        0.392787    0.601995    0.616549     0.004307
NI3083   NI        0.367777    0.614821    0.584750     0.004307
NI3084   NI        0.434572    0.589079    0.602564     0.004307
NI3085   NI        0.444027    0.628401    0.623230     0.004307
NI3086   NI        0.463306    0.586761    0.636741     0.004307
NI3087   NI        0.480665    0.631751    0.578695     0.004307
NI3088   NI        0.528258    0.615723    0.571420     0.004307
NI3089   NI        0.496088    0.621970    0.621409     0.004307
NI3090   NI        0.571510    0.598432    0.621504     0.004307
NI3091   NI        0.540010    0.629556    0.607595     0.004307
NI3092   NI        0.561966    0.577813    0.583137     0.004307
NI3093   NI        0.582645    0.636349    0.611718     0.004307
NI3094   NI        0.603342    0.565186    0.624902     0.004307
NI3095   NI        0.589040    0.615679    0.570345     0.004307
AU3096   AU        0.661813    0.597289    0.579771     0.007504
AU3097   AU        0.625331    0.607020    0.611209     0.007504
AU3098   AU        0.677532    0.594938    0.622631     0.007504
AU3099   AU        0.661717    0.640185    0.602957     0.007504
AU3100   AU        0.713914    0.598951    0.590139     0.007504
AU3101   AU        0.711497    0.635723    0.620870     0.007504
AU3102   AU        0.752786    0.603174    0.622600     0.007504
AU3103   AU        0.749753    0.634034    0.584118     0.007504
AU3104   AU        0.782233    0.599758    0.577291     0.007504
NI3105   NI        0.789291    0.636845    0.610430     0.004307
NI3106   NI        0.128237    0.676929    0.619129     0.004307
NI3107   NI        0.134014    0.699279    0.577427     0.004307
NI3108   NI        0.137833    0.655749    0.577397     0.004307
NI3109   NI        0.130961    0.683720    0.659882     0.004307
AU3110   AU        0.180281    0.674204    0.619699     0.007504
AU3111   AU        0.185472    0.691325    0.574174     0.007504
AU3112   AU        0.220579    0.659545    0.581586     0.007504
AU3113   AU        0.217790    0.694382    0.610863     0.007504
AU3114   AU        0.250497    0.663833    0.618863     0.007504
AU3115   AU        0.256802    0.695671    0.579970     0.007504
AU3116   AU        0.289724    0.661625    0.585600     0.007504
AU3117   AU        0.285412    0.702319    0.620336     0.007504
AU3118   AU        0.322768    0.666362    0.621219     0.007504
AU3119   AU        0.321461    0.701867    0.585066     0.007504
NI3120   NI        0.359705    0.663263    0.542799     0.004307
AU3121   AU        0.357697    0.704478    0.620654     0.007504
NI3122   NI        0.385964    0.661727    0.602258     0.004307
AU3123   AU        0.398145    0.707915    0.591998     0.007504
NI3124   NI        0.437755    0.670867    0.594676     0.004307
AU3125   AU        0.437205    0.699032    0.627462     0.007504
NI3126   NI        0.479255    0.667809    0.629598     0.004307
AU3127   AU        0.477175    0.708079    0.598798     0.007504
AU3128   AU        0.510364    0.669958    0.595400     0.007504
AU3129   AU        0.513282    0.707346    0.629358     0.007504
AU3130   AU        0.550015    0.673600    0.627538     0.007504
AU3131   AU        0.547288    0.707470    0.592042     0.007504
NI3132   NI        0.551818    0.662159    0.580140     0.004307
AU3133   AU        0.585480    0.708292    0.629120     0.007504
AU3134   AU        0.602873    0.669259    0.635059     0.007504
AU3135   AU        0.613153    0.689149    0.590551     0.007504
AU3136   AU        0.675304    0.679691    0.588800     0.007504
AU3137   AU        0.646114    0.692897    0.629499     0.007504
AU3138   AU        0.681445    0.669551    0.637804     0.007504
NI3139   NI        0.707561    0.717649    0.589811     0.004307
AU3140   AU        0.725562    0.671137    0.592864     0.007504
NI3141   NI        0.745301    0.702858    0.614707     0.004307
NI3142   NI        0.752197    0.651531    0.626694     0.004307
NI3143   NI        0.774698    0.679032    0.586528     0.004307
NI3144   NI        0.161966    0.763406    0.585238     0.004307
NI3145   NI        0.164165    0.722867    0.599499     0.004307
NI3146   NI        0.201716    0.775754    0.590503     0.004307
AU3147   AU        0.205579    0.729303    0.581239     0.007504
NI3148   NI        0.198947    0.745654    0.627285     0.004307
AU3149   AU        0.241711    0.731909    0.615309     0.007504
AU3150   AU        0.240497    0.763301    0.574011     0.007504
AU3151   AU        0.282722    0.740206    0.586326     0.007504
NI3152   NI        0.295888    0.787058    0.629763     0.004307
AU3153   AU        0.320439    0.737009    0.622604     0.007504
AU3154   AU        0.320367    0.775926    0.593538     0.007504
AU3155   AU        0.355103    0.739984    0.584930     0.007504
AU3156   AU        0.356852    0.765309    0.627452     0.007504
AU3157   AU        0.397219    0.732370    0.628107     0.007504
AU3158   AU        0.396668    0.763901    0.587337     0.007504
AU3159   AU        0.436787    0.738966    0.602581     0.007504
AU3160   AU        0.432463    0.772282    0.638386     0.007504
AU3161   AU        0.470413    0.737695    0.637101     0.007504
AU3162   AU        0.474369    0.769613    0.600395     0.007504
AU3163   AU        0.513093    0.743080    0.592970     0.007504
AU3164   AU        0.507439    0.771217    0.631896     0.007504
AU3165   AU        0.548628    0.742201    0.629364     0.007504
AU3166   AU        0.551685    0.762561    0.585855     0.007504
AU3167   AU        0.589916    0.732248    0.591428     0.007504
NI3168   NI        0.583194    0.769920    0.620707     0.004307
AU3169   AU        0.622227    0.741316    0.628939     0.007504
NI3170   NI        0.624732    0.764813    0.582778     0.004307
AU3171   AU        0.648009    0.717499    0.591378     0.007504
NI3172   NI        0.651254    0.781448    0.633071     0.004307
NI3173   NI        0.665638    0.735643    0.637777     0.004307
NI3174   NI        0.668127    0.755385    0.589847     0.004307
NI3175   NI        0.726412    0.743884    0.562399     0.004307
NI3176   NI        0.248469    0.816140    0.569851     0.004307
NI3177   NI        0.275942    0.786358    0.591621     0.004307
NI3178   NI        0.339931    0.820179    0.618743     0.004307
NI3179   NI        0.333266    0.836019    0.564029     0.004307
AU3180   AU        0.365113    0.798698    0.568551     0.007504
NI3181   NI        0.394682    0.839020    0.639315     0.004307
AU3182   AU        0.391825    0.798791    0.619468     0.007504
NI3183   NI        0.375575    0.847522    0.562581     0.004307
AU3184   AU        0.437432    0.792579    0.596007     0.007504
NI3185   NI        0.433866    0.827579    0.633455     0.004307
NI3186   NI        0.471787    0.808840    0.630183     0.004307
NI3187   NI        0.490224    0.845946    0.566116     0.004307
AU3188   AU        0.514069    0.797029    0.588101     0.007504
NI3189   NI        0.494913    0.824740    0.669552     0.004307
NI3190   NI        0.548656    0.791776    0.618544     0.004307
NI3191   NI        0.527084    0.835714    0.613998     0.004307
NI3192   NI        0.595624    0.804839    0.599234     0.004307
NI3193   NI        0.637055    0.820571    0.599430     0.004307
NI3194   NI        0.221145    0.113008    0.621685     0.004307
NI3195   NI        0.318789    0.108537    0.680228     0.004307
AU3196   AU        0.318503    0.132555    0.644653     0.007504
NI3197   NI        0.350378    0.075600    0.671854     0.004307
AU3198   AU        0.358658    0.129956    0.676974     0.007504
NI3199   NI        0.423203    0.077461    0.705676     0.004307
AU3200   AU        0.401535    0.101523    0.666534     0.007504
NI3201   NI        0.439912    0.078316    0.647595     0.004307
AU3202   AU        0.434279    0.125414    0.693647     0.007504
NI3203   NI        0.484799    0.092480    0.704987     0.004307
AU3204   AU        0.471290    0.120067    0.664139     0.007504
NI3205   NI        0.514247    0.067829    0.641450     0.004307
NI3206   NI        0.503646    0.130493    0.706968     0.004307
NI3207   NI        0.533426    0.109457    0.663995     0.004307
NI3208   NI        0.570425    0.112265    0.697871     0.004307
NI3209   NI        0.622996    0.124509    0.657126     0.004307
NI3210   NI        0.196452    0.183567    0.655627     0.004307
NI3211   NI        0.202069    0.144721    0.664733     0.004307
NI3212   NI        0.206350    0.173625    0.699285     0.004307
NI3213   NI        0.241803    0.146466    0.689593     0.004307
AU3214   AU        0.245927    0.188577    0.666796     0.007504
AU3215   AU        0.283291    0.148882    0.676625     0.007504
AU3216   AU        0.289186    0.202431    0.685878     0.007504
AU3217   AU        0.324432    0.166803    0.681646     0.007504
AU3218   AU        0.324659    0.205784    0.651586     0.007504
AU3219   AU        0.352056    0.173161    0.647772     0.007504
AU3220   AU        0.364524    0.198808    0.688452     0.007504
AU3221   AU        0.399727    0.159748    0.691222     0.007504
AU3222   AU        0.399675    0.191862    0.655027     0.007504
AU3223   AU        0.438372    0.158378    0.658907     0.007504
AU3224   AU        0.437105    0.196498    0.691118     0.007504
AU3225   AU        0.473020    0.159366    0.696921     0.007504
AU3226   AU        0.475636    0.191014    0.659375     0.007504
AU3227   AU        0.510646    0.151132    0.663626     0.007504
AU3228   AU        0.510927    0.186074    0.700449     0.007504
AU3229   AU        0.548868    0.152358    0.696465     0.007504
AU3230   AU        0.547352    0.187513    0.663272     0.007504
AU3231   AU        0.584150    0.149502    0.666292     0.007504
AU3232   AU        0.583140    0.192414    0.689978     0.007504
NI3233   NI        0.595429    0.152830    0.708211     0.004307
AU3234   AU        0.622920    0.188959    0.659042     0.007504
NI3235   NI        0.659832    0.154380    0.664543     0.004307
NI3236   NI        0.642923    0.181569    0.699874     0.004307
AU3237   AU        0.673487    0.199669    0.661720     0.007504
NI3238   NI        0.088115    0.247823    0.621541     0.004307
NI3239   NI        0.171527    0.217321    0.664797     0.004307
NI3240   NI        0.143143    0.247762    0.671200     0.004307
NI3241   NI        0.214247    0.211986    0.708898     0.004307
AU3242   AU        0.186426    0.262423    0.660106     0.007504
AU3243   AU        0.221359    0.225908    0.661877     0.007504
AU3244   AU        0.221086    0.262940    0.698260     0.007504
AU3245   AU        0.253406    0.227363    0.698541     0.007504
AU3246   AU        0.256287    0.264355    0.663403     0.007504
NI3247   NI        0.295819    0.235074    0.653901     0.004307
AU3248   AU        0.290355    0.262817    0.695138     0.007504
AU3249   AU        0.325437    0.225351    0.696334     0.007504
NI3250   NI        0.333479    0.255493    0.653450     0.004307
NI3251   NI        0.368032    0.223687    0.645635     0.004307
NI3252   NI        0.364085    0.252062    0.687192     0.004307
NI3253   NI        0.399511    0.225098    0.680790     0.004307
NI3254   NI        0.422908    0.276998    0.612129     0.004307
NI3255   NI        0.444444    0.244632    0.679165     0.004307
NI3256   NI        0.409868    0.273555    0.681885     0.004307
AU3257   AU        0.479071    0.224845    0.699735     0.007504
NI3258   NI        0.478608    0.253732    0.656167     0.004307
AU3259   AU        0.515493    0.221410    0.664722     0.007504
AU3260   AU        0.509624    0.260903    0.692123     0.007504
AU3261   AU        0.549533    0.228688    0.692882     0.007504
AU3262   AU        0.542388    0.264915    0.654663     0.007504
AU3263   AU        0.589889    0.227996    0.661833     0.007504
AU3264   AU        0.574382    0.266395    0.692772     0.007504
AU3265   AU        0.621501    0.224943    0.697911     0.007504
AU3266   AU        0.607840    0.268945    0.661920     0.007504
AU3267   AU        0.639084    0.232952    0.659652     0.007504
AU3268   AU        0.648279    0.267699    0.690541     0.007504
AU3269   AU        0.668759    0.226495    0.703087     0.007504
AU3270   AU        0.685003    0.247957    0.658805     0.007504
NI3271   NI        0.713548    0.217317    0.688796     0.004307
AU3272   AU        0.709807    0.261263    0.695304     0.007504
NI3273   NI        0.739837    0.258961    0.665854     0.004307
NI3274   NI        0.153918    0.256607    0.737532     0.004307
NI3275   NI        0.127110    0.338263    0.677798     0.004307
AU3276   AU        0.147992    0.295412    0.656735     0.007504
AU3277   AU        0.158363    0.338172    0.711627     0.007504
AU3278   AU        0.181216    0.297514    0.695029     0.007504
AU3279   AU        0.179212    0.334405    0.665579     0.007504
AU3280   AU        0.219913    0.300513    0.661081     0.007504
AU3281   AU        0.225307    0.343424    0.683191     0.007504
AU3282   AU        0.259325    0.300838    0.691507     0.007504
AU3283   AU        0.263469    0.328708    0.658216     0.007504
AU3284   AU        0.297995    0.291395    0.651817     0.007504
AU3285   AU        0.271318    0.342978    0.702740     0.007504
AU3286   AU        0.336620    0.287634    0.686356     0.007504
AU3287   AU        0.333389    0.327748    0.656696     0.007504
NI3288   NI        0.379358    0.307856    0.676147     0.004307
NI3289   NI        0.358463    0.345719    0.691733     0.004307
NI3290   NI        0.411225    0.342986    0.680048     0.004307
NI3291   NI        0.378610    0.349190    0.635262     0.004307
NI3292   NI        0.437303    0.292539    0.655729     0.004307
NI3293   NI        0.451883    0.332398    0.691037     0.004307
NI3294   NI        0.455463    0.282197    0.695162     0.004307
NI3295   NI        0.477672    0.344130    0.650747     0.004307
NI3296   NI        0.492908    0.295970    0.656701     0.004307
NI3297   NI        0.492561    0.319076    0.690977     0.004307
AU3298   AU        0.534141    0.302209    0.688577     0.007504
AU3299   AU        0.532437    0.339115    0.657779     0.007504
AU3300   AU        0.570363    0.303642    0.661335     0.007504
AU3301   AU        0.568535    0.343072    0.690236     0.007504
AU3302   AU        0.609200    0.306863    0.694316     0.007504
AU3303   AU        0.608462    0.341536    0.658842     0.007504
AU3304   AU        0.662711    0.291730    0.650755     0.007504
AU3305   AU        0.645476    0.342506    0.691653     0.007504
AU3306   AU        0.684804    0.304459    0.698062     0.007504
AU3307   AU        0.685622    0.338143    0.657959     0.007504
AU3308   AU        0.707879    0.291029    0.654690     0.007504
AU3309   AU        0.719052    0.338787    0.693544     0.007504
NI3310   NI        0.745198    0.307784    0.678755     0.004307
AU3311   AU        0.760046    0.339107    0.646687     0.007504
NI3312   NI        0.068312    0.354782    0.630147     0.004307
NI3313   NI        0.112397    0.360980    0.713053     0.004307
NI3314   NI        0.140060    0.398912    0.695463     0.004307
NI3315   NI        0.092352    0.398929    0.672141     0.004307
NI3316   NI        0.147905    0.375304    0.661493     0.004307
AU3317   AU        0.131112    0.440759    0.678724     0.007504
AU3318   AU        0.192844    0.377428    0.695640     0.007504
AU3319   AU        0.174641    0.409894    0.664767     0.007504
AU3320   AU        0.213453    0.382644    0.647889     0.007504
AU3321   AU        0.217871    0.420729    0.685478     0.007504
AU3322   AU        0.249531    0.382560    0.679794     0.007504
NI3323   NI        0.261788    0.440266    0.665094     0.004307
AU3324   AU        0.296828    0.366098    0.661085     0.007504
NI3325   NI        0.290105    0.409885    0.689169     0.004307
NI3326   NI        0.329068    0.387489    0.690205     0.004307
NI3327   NI        0.321421    0.409333    0.652202     0.004307
NI3328   NI        0.360305    0.379103    0.661966     0.004307
NI3329   NI        0.367212    0.385990    0.704532     0.004307
NI3330   NI        0.410009    0.383413    0.696421     0.004307
NI3331   NI        0.395518    0.404134    0.663270     0.004307
NI3332   NI        0.428565    0.375656    0.653889     0.004307
NI3333   NI        0.430157    0.418127    0.685658     0.004307
AU3334   AU        0.464101    0.382986    0.691011     0.007504
AU3335   AU        0.463145    0.410251    0.646755     0.007504
AU3336   AU        0.503588    0.379122    0.660082     0.007504
NI3337   NI        0.502801    0.395173    0.715303     0.004307
AU3338   AU        0.540975    0.378861    0.690605     0.007504
AU3339   AU        0.540626    0.416538    0.659632     0.007504
AU3340   AU        0.580643    0.382259    0.659123     0.007504
AU3341   AU        0.580258    0.419548    0.690948     0.007504
AU3342   AU        0.616684    0.382862    0.693520     0.007504
AU3343   AU        0.618530    0.415654    0.657110     0.007504
AU3344   AU        0.656126    0.380675    0.658582     0.007504
AU3345   AU        0.653583    0.420582    0.693338     0.007504
AU3346   AU        0.684331    0.378669    0.691377     0.007504
AU3347   AU        0.694467    0.415417    0.660944     0.007504
AU3348   AU        0.720221    0.374088    0.654281     0.007504
AU3349   AU        0.733524    0.411189    0.688151     0.007504
NI3350   NI        0.773418    0.377214    0.674220     0.004307
AU3351   AU        0.755202    0.410626    0.641734     0.007504
NI3352   NI        0.780823    0.301878    0.660800     0.004307
NI3353   NI        0.798678    0.425473    0.651377     0.004307
AU3354   AU        0.084714    0.448310    0.658059     0.007504
NI3355   NI        0.095040    0.482554    0.694979     0.004307
NI3356   NI        0.095233    0.428170    0.700161     0.004307
AU3357   AU        0.119507    0.481467    0.653583     0.007504
AU3358   AU        0.159595    0.449372    0.644560     0.007504
AU3359   AU        0.142556    0.484969    0.695740     0.007504
AU3360   AU        0.179220    0.451506    0.692208     0.007504
AU3361   AU        0.178561    0.492741    0.665031     0.007504
AU3362   AU        0.223061    0.469273    0.667413     0.007504
AU3363   AU        0.206802    0.498529    0.705072     0.007504
AU3364   AU        0.226504    0.455965    0.713980     0.007504
NI3365   NI        0.266396    0.498320    0.648966     0.004307
NI3366   NI        0.314992    0.473278    0.657781     0.004307
NI3367   NI        0.305049    0.495757    0.704518     0.004307
NI3368   NI        0.328326    0.440666    0.695153     0.004307
NI3369   NI        0.363240    0.477008    0.651350     0.004307
NI3370   NI        0.361585    0.430958    0.668467     0.004307
NI3371   NI        0.354780    0.473907    0.706769     0.004307
NI3372   NI        0.393750    0.454056    0.683081     0.004307
NI3373   NI        0.418047    0.477699    0.623974     0.004307
NI3374   NI        0.425784    0.443488    0.654380     0.004307
NI3375   NI        0.431192    0.480451    0.686506     0.004307
NI3376   NI        0.477440    0.424996    0.690711     0.004307
NI3377   NI        0.462957    0.458886    0.665082     0.004307
NI3378   NI        0.503951    0.437277    0.660629     0.004307
NI3379   NI        0.495438    0.472223    0.694611     0.004307
AU3380   AU        0.541033    0.449723    0.693762     0.007504
NI3381   NI        0.533841    0.480974    0.663548     0.004307
NI3382   NI        0.574026    0.455667    0.656459     0.004307
NI3383   NI        0.573350    0.485800    0.686744     0.004307
AU3384   AU        0.612743    0.456611    0.685913     0.007504
NI3385   NI        0.609777    0.492735    0.658545     0.004307
AU3386   AU        0.650021    0.455860    0.653506     0.007504
AU3387   AU        0.650097    0.491092    0.689223     0.007504
AU3388   AU        0.687982    0.455800    0.687047     0.007504
AU3389   AU        0.687517    0.492643    0.655884     0.007504
AU3390   AU        0.727860    0.451480    0.657656     0.007504
AU3391   AU        0.728456    0.490198    0.682466     0.007504
AU3392   AU        0.730611    0.454430    0.713258     0.007504
AU3393   AU        0.762186    0.488419    0.652076     0.007504
NI3394   NI        0.805393    0.473914    0.659332     0.004307
NI3395   NI        0.768833    0.446451    0.677952     0.004307
NI3396   NI        0.046157    0.518809    0.613673     0.004307
NI3397   NI        0.119654    0.525460    0.698943     0.004307
NI3398   NI        0.093789    0.536513    0.661558     0.004307
AU3399   AU        0.144804    0.522599    0.658634     0.007504
AU3400   AU        0.135547    0.561773    0.680603     0.007504
AU3401   AU        0.171649    0.527723    0.701420     0.007504
AU3402   AU        0.183553    0.555052    0.660687     0.007504
AU3403   AU        0.222096    0.517601    0.657716     0.007504
AU3404   AU        0.216259    0.554866    0.693084     0.007504
NI3405   NI        0.257202    0.515078    0.685055     0.004307
AU3406   AU        0.255916    0.555404    0.658255     0.007504
NI3407   NI        0.298850    0.522898    0.667002     0.004307
AU3408   AU        0.286798    0.558991    0.699698     0.007504
NI3409   NI        0.343055    0.508499    0.688561     0.004307
NI3410   NI        0.329509    0.570479    0.671029     0.004307
NI3411   NI        0.374948    0.534857    0.661757     0.004307
NI3412   NI        0.362897    0.552399    0.696815     0.004307
NI3413   NI        0.386952    0.501857    0.694905     0.004307
NI3414   NI        0.398577    0.553036    0.615810     0.004307
NI3415   NI        0.411573    0.509976    0.662224     0.004307
NI3416   NI        0.404054    0.567552    0.684673     0.004307
NI3417   NI        0.456239    0.519835    0.692191     0.004307
NI3418   NI        0.451006    0.542282    0.652168     0.004307
NI3419   NI        0.494039    0.508742    0.668322     0.004307
NI3420   NI        0.490697    0.547779    0.699200     0.004307
AU3421   AU        0.521117    0.507619    0.711987     0.007504
AU3422   AU        0.532279    0.543260    0.674718     0.007504
NI3423   NI        0.569340    0.519874    0.660540     0.004307
AU3424   AU        0.573590    0.548990    0.701323     0.007504
AU3425   AU        0.616447    0.519316    0.698746     0.007504
NI3426   NI        0.606968    0.550475    0.664642     0.004307
AU3427   AU        0.645313    0.529913    0.655479     0.007504
AU3428   AU        0.663100    0.542436    0.704028     0.007504
AU3429   AU        0.690818    0.502206    0.709433     0.007504
AU3430   AU        0.683422    0.562974    0.661582     0.007504
AU3431   AU        0.722083    0.529984    0.663022     0.007504
AU3432   AU        0.720497    0.566114    0.695801     0.007504
NI3433   NI        0.757038    0.527396    0.688423     0.004307
AU3434   AU        0.756147    0.567124    0.658176     0.007504
NI3435   NI        0.788698    0.534754    0.654846     0.004307
NI3436   NI        0.094428    0.601394    0.679875     0.004307
NI3437   NI        0.102809    0.639851    0.651599     0.004307
AU3438   AU        0.134183    0.602065    0.648820     0.007504
NI3439   NI        0.140191    0.591705    0.720752     0.004307
AU3440   AU        0.173405    0.599078    0.681722     0.007504
AU3441   AU        0.171450    0.642685    0.661466     0.007504
AU3442   AU        0.217631    0.590680    0.654587     0.007504
AU3443   AU        0.213608    0.627821    0.687505     0.007504
AU3444   AU        0.251265    0.593794    0.691406     0.007504
AU3445   AU        0.247845    0.631105    0.655772     0.007504
AU3446   AU        0.289082    0.596458    0.662027     0.007504
AU3447   AU        0.285547    0.630335    0.690750     0.007504
NI3448   NI        0.364098    0.597318    0.692529     0.004307
AU3449   AU        0.325357    0.633183    0.659339     0.007504
NI3450   NI        0.369631    0.578364    0.640711     0.004307
NI3451   NI        0.368269    0.639176    0.687224     0.004307
NI3452   NI        0.405530    0.610116    0.689599     0.004307
NI3453   NI        0.400539    0.634771    0.656746     0.004307
NI3454   NI        0.418669    0.581896    0.642637     0.004307
NI3455   NI        0.448593    0.620051    0.698249     0.004307
NI3456   NI        0.475473    0.589928    0.715730     0.004307
NI3457   NI        0.475950    0.630841    0.665987     0.004307
NI3458   NI        0.496125    0.548942    0.637431     0.004307
NI3459   NI        0.486008    0.583891    0.675291     0.004307
NI3460   NI        0.527498    0.595186    0.685188     0.004307
NI3461   NI        0.535537    0.618593    0.647121     0.004307
NI3462   NI        0.567284    0.582146    0.666312     0.004307
AU3463   AU        0.570149    0.629361    0.690327     0.007504
AU3464   AU        0.603841    0.588035    0.689943     0.007504
AU3465   AU        0.597049    0.618747    0.651258     0.007504
AU3466   AU        0.637773    0.590019    0.652544     0.007504
AU3467   AU        0.636268    0.619556    0.684973     0.007504
AU3468   AU        0.681640    0.600842    0.695196     0.007504
AU3469   AU        0.675170    0.626863    0.652012     0.007504
AU3470   AU        0.716865    0.600877    0.657548     0.007504
NI3471   NI        0.717224    0.644906    0.677811     0.004307
NI3472   NI        0.730167    0.606932    0.700543     0.004307
NI3473   NI        0.756874    0.621351    0.664877     0.004307
NI3474   NI        0.163510    0.714441    0.643423     0.004307
NI3475   NI        0.130151    0.635515    0.684152     0.004307
NI3476   NI        0.204110    0.711854    0.651181     0.004307
AU3477   AU        0.214731    0.666667    0.656937     0.007504
NI3478   NI        0.211324    0.701208    0.696255     0.004307
AU3479   AU        0.248796    0.666091    0.694261     0.007504
AU3480   AU        0.246116    0.698164    0.654559     0.007504
AU3481   AU        0.286180    0.666376    0.654848     0.007504
AU3482   AU        0.288129    0.697072    0.696495     0.007504
AU3483   AU        0.323910    0.664137    0.691809     0.007504
AU3484   AU        0.320850    0.702241    0.656050     0.007504
AU3485   AU        0.359610    0.670383    0.657079     0.007504
AU3486   AU        0.364747    0.689665    0.696654     0.007504
AU3487   AU        0.402903    0.656607    0.698252     0.007504
AU3488   AU        0.400931    0.689513    0.662956     0.007504
AU3489   AU        0.440672    0.659498    0.663368     0.007504
AU3490   AU        0.439673    0.696514    0.695603     0.007504
AU3491   AU        0.479030    0.664749    0.696814     0.007504
AU3492   AU        0.474903    0.700011    0.661099     0.007504
AU3493   AU        0.515105    0.672782    0.657957     0.007504
AU3494   AU        0.512986    0.700877    0.699315     0.007504
AU3495   AU        0.521369    0.643367    0.692248     0.007504
AU3496   AU        0.551533    0.707063    0.666331     0.007504
NI3497   NI        0.573628    0.672336    0.665594     0.004307
AU3498   AU        0.587861    0.705073    0.701771     0.007504
AU3499   AU        0.610841    0.656882    0.682220     0.007504
AU3500   AU        0.617411    0.707009    0.668069     0.007504
AU3501   AU        0.637239    0.643535    0.640182     0.007504
NI3502   NI        0.633989    0.686254    0.752326     0.004307
NI3503   NI        0.669049    0.698472    0.672966     0.004307
NI3504   NI        0.703197    0.720360    0.648126     0.004307
NI3505   NI        0.723351    0.674967    0.646446     0.004307
NI3506   NI        0.230664    0.750948    0.658462     0.004307
NI3507   NI        0.288835    0.767288    0.697991     0.004307
NI3508   NI        0.258294    0.783263    0.662888     0.004307
AU3509   AU        0.279495    0.733385    0.657667     0.007504
NI3510   NI        0.329801    0.764376    0.738710     0.004307
AU3511   AU        0.330941    0.725219    0.699872     0.007504
AU3512   AU        0.324492    0.759792    0.665953     0.007504
AU3513   AU        0.360406    0.724116    0.659660     0.007504
NI3514   NI        0.360167    0.769118    0.702302     0.004307
AU3515   AU        0.398542    0.726288    0.693369     0.007504
AU3516   AU        0.389766    0.763625    0.660549     0.007504
AU3517   AU        0.433813    0.731312    0.660218     0.007504
AU3518   AU        0.432931    0.764497    0.691754     0.007504
AU3519   AU        0.472565    0.733945    0.694008     0.007504
AU3520   AU        0.478186    0.778492    0.671513     0.007504
AU3521   AU        0.513239    0.741403    0.668777     0.007504
NI3522   NI        0.510081    0.769955    0.706288     0.004307
AU3523   AU        0.548911    0.739998    0.704426     0.007504
AU3524   AU        0.548939    0.775878    0.665928     0.007504
AU3525   AU        0.583716    0.743015    0.667149     0.007504
NI3526   NI        0.550087    0.773825    0.739452     0.004307
NI3527   NI        0.594901    0.743369    0.722898     0.004307
NI3528   NI        0.610789    0.781430    0.660122     0.004307
NI3529   NI        0.636943    0.752243    0.674907     0.004307
NI3530   NI        0.359718    0.797491    0.664156     0.004307
NI3531   NI        0.403177    0.776955    0.717707     0.004307
NI3532   NI        0.409503    0.805425    0.666474     0.004307
NI3533   NI        0.449378    0.820634    0.675159     0.004307
NI3534   NI        0.535716    0.827417    0.655198     0.004307
NI3535   NI        0.392817    0.117393    0.712595     0.004307
NI3536   NI        0.467814    0.128661    0.732430     0.004307
NI3537   NI        0.276267    0.165991    0.718806     0.004307
NI3538   NI        0.308288    0.137145    0.720596     0.004307
NI3539   NI        0.297097    0.181394    0.771759     0.004307
AU3540   AU        0.318478    0.186337    0.728083     0.007504
AU3541   AU        0.358227    0.158081    0.719859     0.007504
NI3542   NI        0.356109    0.193326    0.758130     0.004307
NI3543   NI        0.388955    0.158801    0.752717     0.004307
AU3544   AU        0.395068    0.195192    0.724068     0.007504
AU3545   AU        0.434277    0.163255    0.728736     0.007504
NI3546   NI        0.432637    0.199916    0.753988     0.004307
NI3547   NI        0.458407    0.164260    0.773340     0.004307
AU3548   AU        0.472083    0.194052    0.735206     0.007504
NI3549   NI        0.511310    0.162986    0.744265     0.004307
AU3550   AU        0.500327    0.219919    0.767905     0.007504
AU3551   AU        0.551494    0.188255    0.726484     0.007504
NI3552   NI        0.549771    0.141374    0.737395     0.004307
NI3553   NI        0.641928    0.150626    0.738691     0.004307
NI3554   NI        0.606570    0.190710    0.729835     0.004307
NI3555   NI        0.183641    0.242816    0.700027     0.004307
NI3556   NI        0.217014    0.229701    0.748230     0.004307
NI3557   NI        0.201223    0.270989    0.739491     0.004307
NI3558   NI        0.258948    0.224030    0.763957     0.004307
AU3559   AU        0.253123    0.260812    0.739213     0.007504
AU3560   AU        0.292372    0.229327    0.732545     0.007504
AU3561   AU        0.287846    0.288444    0.763443     0.007504
NI3562   NI        0.325623    0.231990    0.770975     0.004307
AU3563   AU        0.325550    0.265671    0.732900     0.007504
AU3564   AU        0.357391    0.227751    0.732360     0.007504
AU3565   AU        0.363972    0.264703    0.766243     0.007504
AU3566   AU        0.397958    0.225565    0.763773     0.007504
AU3567   AU        0.389916    0.254144    0.720859     0.007504
NI3568   NI        0.429023    0.230670    0.718571     0.004307
AU3569   AU        0.413916    0.268849    0.761654     0.007504
AU3570   AU        0.453876    0.236870    0.755674     0.007504
AU3571   AU        0.487765    0.263395    0.738887     0.007504
AU3572   AU        0.518794    0.225421    0.729687     0.007504
AU3573   AU        0.525018    0.263708    0.766416     0.007504
AU3574   AU        0.550123    0.221061    0.767622     0.007504
AU3575   AU        0.544278    0.262992    0.724047     0.007504
AU3576   AU        0.580445    0.227610    0.726766     0.007504
AU3577   AU        0.574385    0.269034    0.757130     0.007504
NI3578   NI        0.620414    0.233456    0.756448     0.004307
AU3579   AU        0.613715    0.267752    0.725294     0.007504
NI3580   NI        0.644602    0.195825    0.743256     0.004307
NI3581   NI        0.639148    0.276576    0.770192     0.004307
AU3582   AU        0.674983    0.267745    0.731549     0.007504
NI3583   NI        0.136835    0.298016    0.699547     0.004307
NI3584   NI        0.191479    0.306440    0.802843     0.004307
NI3585   NI        0.190229    0.326950    0.735354     0.004307
AU3586   AU        0.223462    0.308696    0.717484     0.007504
NI3587   NI        0.210960    0.347869    0.777047     0.004307
NI3588   NI        0.218530    0.305490    0.761192     0.004307
AU3589   AU        0.260769    0.323751    0.747419     0.007504
AU3590   AU        0.301043    0.307745    0.721594     0.007504
AU3591   AU        0.301068    0.337514    0.774527     0.007504
AU3592   AU        0.336402    0.307420    0.753973     0.007504
NI3593   NI        0.317220    0.359201    0.719384     0.004307
AU3594   AU        0.367894    0.295483    0.723553     0.007504
NI3595   NI        0.373731    0.359608    0.771944     0.004307
AU3596   AU        0.389515    0.308823    0.768405     0.007504
NI3597   NI        0.393004    0.349972    0.725073     0.004307
AU3598   AU        0.418852    0.300598    0.725585     0.007504
AU3599   AU        0.463192    0.342477    0.773318     0.007504
AU3600   AU        0.451604    0.289143    0.767929     0.007504
AU3601   AU        0.470179    0.312784    0.730258     0.007504
AU3602   AU        0.516620    0.297207    0.733476     0.007504
NI3603   NI        0.504047    0.337491    0.753291     0.004307
AU3604   AU        0.544337    0.311326    0.771102     0.007504
AU3605   AU        0.529123    0.339956    0.720362     0.007504
AU3606   AU        0.568605    0.305748    0.724700     0.007504
AU3607   AU        0.571279    0.348706    0.748767     0.007504
AU3608   AU        0.605052    0.307674    0.759801     0.007504
AU3609   AU        0.606081    0.339940    0.722614     0.007504
AU3610   AU        0.644186    0.305950    0.728966     0.007504
AU3611   AU        0.638814    0.345511    0.755308     0.007504
NI3612   NI        0.673465    0.315785    0.771896     0.004307
AU3613   AU        0.682207    0.341848    0.729034     0.007504
NI3614   NI        0.744805    0.282666    0.748903     0.004307
NI3615   NI        0.110332    0.404466    0.744817     0.004307
NI3616   NI        0.153656    0.398316    0.735262     0.004307
NI3617   NI        0.149013    0.389897    0.785607     0.004307
NI3618   NI        0.184240    0.366600    0.743514     0.004307
NI3619   NI        0.166801    0.438972    0.733257     0.004307
AU3620   AU        0.230720    0.361742    0.728263     0.007504
AU3621   AU        0.205436    0.406915    0.738504     0.007504
NI3622   NI        0.261763    0.350444    0.790224     0.004307
AU3623   AU        0.251107    0.408201    0.723849     0.007504
AU3624   AU        0.279216    0.372055    0.745069     0.007504
AU3625   AU        0.293333    0.419850    0.749373     0.007504
AU3626   AU        0.324991    0.380409    0.765805     0.007504
NI3627   NI        0.340290    0.408818    0.729924     0.004307
NI3628   NI        0.352634    0.346488    0.739771     0.004307
NI3629   NI        0.380505    0.391425    0.746903     0.004307
AU3630   AU        0.416007    0.353266    0.767853     0.007504
NI3631   NI        0.422004    0.391031    0.736391     0.004307
NI3632   NI        0.433380    0.348609    0.726647     0.004307
AU3633   AU        0.441117    0.398097    0.778642     0.007504
AU3634   AU        0.481692    0.391976    0.762489     0.007504
NI3635   NI        0.453527    0.415000    0.726484     0.004307
NI3636   NI        0.479870    0.361564    0.727973     0.004307
AU3637   AU        0.514581    0.430410    0.764101     0.007504
AU3638   AU        0.525256    0.378833    0.752784     0.007504
AU3639   AU        0.543959    0.417340    0.724158     0.007504
NI3640   NI        0.580724    0.383750    0.719281     0.004307
NI3641   NI        0.573668    0.395913    0.760671     0.004307
AU3642   AU        0.619603    0.384893    0.752250     0.007504
AU3643   AU        0.618214    0.418947    0.721048     0.007504
AU3644   AU        0.654314    0.382500    0.723122     0.007504
AU3645   AU        0.646118    0.414712    0.787212     0.007504
NI3646   NI        0.671714    0.380221    0.763975     0.004307
AU3647   AU        0.696325    0.417647    0.720087     0.007504
NI3648   NI        0.715145    0.326345    0.757135     0.004307
NI3649   NI        0.748963    0.488527    0.768978     0.004307
NI3650   NI        0.712021    0.377356    0.720600     0.004307
NI3651   NI        0.108839    0.481038    0.776493     0.004307
NI3652   NI        0.127466    0.452620    0.727636     0.004307
NI3653   NI        0.149952    0.435826    0.772907     0.004307
NI3654   NI        0.176099    0.469114    0.794025     0.004307
AU3655   AU        0.169838    0.493677    0.739753     0.007504
NI3656   NI        0.197325    0.459535    0.757634     0.004307
AU3657   AU        0.222003    0.494622    0.752216     0.007504
AU3658   AU        0.254410    0.450487    0.757209     0.007504
AU3659   AU        0.267545    0.497685    0.737228     0.007504
AU3660   AU        0.276212    0.452247    0.715625     0.007504
AU3661   AU        0.294714    0.470595    0.758473     0.007504
AU3662   AU        0.350717    0.425353    0.776474     0.007504
NI3663   NI        0.324207    0.452401    0.735097     0.004307
NI3664   NI        0.374974    0.428436    0.710315     0.004307
AU3665   AU        0.372391    0.465237    0.752625     0.007504
AU3666   AU        0.401916    0.425831    0.763349     0.007504
NI3667   NI        0.391599    0.503346    0.746853     0.004307
NI3668   NI        0.422249    0.442349    0.723936     0.004307
AU3669   AU        0.424682    0.470221    0.760514     0.007504
AU3670   AU        0.466179    0.440739    0.762564     0.007504
NI3671   NI        0.464805    0.473754    0.724714     0.004307
NI3672   NI        0.499569    0.443117    0.725434     0.004307
AU3673   AU        0.499532    0.479716    0.754983     0.007504
AU3674   AU        0.564071    0.437655    0.772156     0.007504
AU3675   AU        0.543613    0.468522    0.739074     0.007504
AU3676   AU        0.583974    0.458973    0.725126     0.007504
AU3677   AU        0.579508    0.481632    0.773486     0.007504
AU3678   AU        0.608796    0.440059    0.766988     0.007504
AU3679   AU        0.633376    0.466308    0.729974     0.007504
AU3680   AU        0.654325    0.424975    0.746133     0.007504
AU3681   AU        0.649676    0.464163    0.775008     0.007504
NI3682   NI        0.690220    0.432679    0.774837     0.004307
AU3683   AU        0.686673    0.461839    0.739038     0.007504
NI3684   NI        0.728660    0.435197    0.751999     0.004307
NI3685   NI        0.734856    0.495741    0.728934     0.004307
NI3686   NI        0.771102    0.444906    0.726632     0.004307
NI3687   NI        0.133680    0.516488    0.748666     0.004307
NI3688   NI        0.160645    0.561028    0.754599     0.004307
NI3689   NI        0.171782    0.568174    0.710654     0.004307
AU3690   AU        0.196718    0.535572    0.738501     0.007504
NI3691   NI        0.221957    0.549959    0.777253     0.004307
AU3692   AU        0.262005    0.535629    0.778079     0.007504
AU3693   AU        0.248693    0.538669    0.734039     0.007504
AU3694   AU        0.300094    0.535318    0.741335     0.007504
AU3695   AU        0.294163    0.575730    0.767007     0.007504
AU3696   AU        0.329756    0.495248    0.745973     0.007504
AU3697   AU        0.327073    0.577280    0.722985     0.007504
AU3698   AU        0.352134    0.537520    0.735517     0.007504
AU3699   AU        0.382984    0.546509    0.772298     0.007504
AU3700   AU        0.421967    0.513279    0.778825     0.007504
AU3701   AU        0.403469    0.541086    0.727266     0.007504
AU3702   AU        0.443337    0.509668    0.735810     0.007504
AU3703   AU        0.433110    0.553341    0.766683     0.007504
AU3704   AU        0.463725    0.502277    0.780427     0.007504
NI3705   NI        0.457653    0.549485    0.727983     0.004307
AU3706   AU        0.490269    0.526207    0.746429     0.007504
AU3707   AU        0.518019    0.560046    0.770252     0.007504
AU3708   AU        0.539965    0.512424    0.758831     0.007504
AU3709   AU        0.531338    0.553155    0.724218     0.007504
AU3710   AU        0.573711    0.508814    0.727042     0.007504
AU3711   AU        0.570100    0.552889    0.752575     0.007504
AU3712   AU        0.614618    0.508614    0.752190     0.007504
AU3713   AU        0.609000    0.556166    0.732212     0.007504
AU3714   AU        0.658631    0.502679    0.739908     0.007504
AU3715   AU        0.651613    0.547293    0.754081     0.007504
NI3716   NI        0.696664    0.499883    0.762274     0.004307
AU3717   AU        0.687857    0.571410    0.734412     0.007504
NI3718   NI        0.718738    0.533016    0.726328     0.004307
NI3719   NI        0.170259    0.625598    0.725080     0.004307
NI3720   NI        0.177065    0.593563    0.779542     0.004307
NI3721   NI        0.166778    0.683447    0.684572     0.004307
AU3722   AU        0.206536    0.593244    0.721355     0.007504
NI3723   NI        0.213102    0.614539    0.758825     0.004307
AU3724   AU        0.245321    0.585123    0.752877     0.007504
AU3725   AU        0.248336    0.628336    0.726636     0.007504
AU3726   AU        0.283155    0.601643    0.729025     0.007504
NI3727   NI        0.269231    0.613276    0.775806     0.004307
AU3728   AU        0.342320    0.576320    0.771218     0.007504
AU3729   AU        0.329430    0.623327    0.716257     0.007504
AU3730   AU        0.376938    0.580408    0.735295     0.007504
AU3731   AU        0.369496    0.618781    0.769586     0.007504
AU3732   AU        0.407590    0.595407    0.778404     0.007504
AU3733   AU        0.404734    0.620922    0.733914     0.007504
AU3734   AU        0.428681    0.582918    0.729569     0.007504
AU3735   AU        0.445690    0.624192    0.762813     0.007504
AU3736   AU        0.475947    0.586455    0.762056     0.007504
AU3737   AU        0.481370    0.630326    0.728734     0.007504
AU3738   AU        0.517775    0.597003    0.733117     0.007504
AU3739   AU        0.508772    0.626364    0.763477     0.007504
AU3740   AU        0.551730    0.596031    0.772243     0.007504
AU3741   AU        0.552279    0.634410    0.738013     0.007504
AU3742   AU        0.567871    0.590296    0.724231     0.007504
NI3743   NI        0.582610    0.641199    0.772107     0.004307
AU3744   AU        0.600244    0.594835    0.761616     0.007504
AU3745   AU        0.602768    0.623900    0.725216     0.007504
AU3746   AU        0.640801    0.587432    0.725950     0.007504
NI3747   NI        0.625968    0.635943    0.769409     0.004307
NI3748   NI        0.667023    0.622190    0.737909     0.004307
NI3749   NI        0.667590    0.649555    0.689314     0.004307
NI3750   NI        0.729039    0.591943    0.740345     0.004307
NI3751   NI        0.213957    0.658041    0.730857     0.004307
NI3752   NI        0.251739    0.696939    0.733696     0.004307
NI3753   NI        0.247589    0.724678    0.694807     0.004307
AU3754   AU        0.289463    0.655381    0.725618     0.007504
NI3755   NI        0.316750    0.729131    0.753683     0.004307
NI3756   NI        0.299483    0.665270    0.768693     0.004307
AU3757   AU        0.323812    0.685024    0.730092     0.007504
AU3758   AU        0.364916    0.654866    0.730765     0.007504
NI3759   NI        0.394346    0.687224    0.794373     0.004307
AU3760   AU        0.401897    0.655320    0.761991     0.007504
AU3761   AU        0.400814    0.692944    0.729833     0.007504
AU3762   AU        0.439893    0.659742    0.731465     0.007504
AU3763   AU        0.435901    0.696205    0.767214     0.007504
AU3764   AU        0.476627    0.662787    0.766528     0.007504
AU3765   AU        0.474618    0.697864    0.732299     0.007504
AU3766   AU        0.514382    0.667671    0.734190     0.007504
NI3767   NI        0.473550    0.715913    0.791289     0.004307
NI3768   NI        0.544209    0.664531    0.770000     0.004307
AU3769   AU        0.555624    0.676892    0.706113     0.007504
AU3770   AU        0.596002    0.665885    0.730284     0.007504
NI3771   NI        0.560964    0.696995    0.799733     0.004307
NI3772   NI        0.622401    0.604717    0.806412     0.004307
NI3773   NI        0.644362    0.688980    0.704333     0.004307
NI3774   NI        0.637189    0.649247    0.724275     0.004307
NI3775   NI        0.276078    0.738180    0.730064     0.004307
NI3776   NI        0.367589    0.731559    0.726758     0.004307
NI3777   NI        0.358907    0.696248    0.756193     0.004307
NI3778   NI        0.403447    0.749552    0.751496     0.004307
AU3779   AU        0.435332    0.729293    0.728233     0.007504
NI3780   NI        0.488443    0.735022    0.751550     0.004307
NI3781   NI        0.466894    0.797165    0.719527     0.004307
NI3782   NI        0.536832    0.710063    0.743510     0.004307
NI3783   NI        0.583462    0.702612    0.761761     0.004307
NI3784   NI        0.425591    0.190007    0.796744     0.004307
NI3785   NI        0.518874    0.193169    0.796467     0.004307
NI3786   NI        0.248524    0.283665    0.779141     0.004307
NI3787   NI        0.345860    0.247774    0.806899     0.004307
NI3788   NI        0.376475    0.202629    0.803936     0.004307
NI3789   NI        0.395182    0.250874    0.809467     0.004307
NI3790   NI        0.420118    0.290194    0.845623     0.004307
NI3791   NI        0.458772    0.220661    0.796911     0.004307
AU3792   AU        0.437126    0.265563    0.809663     0.007504
AU3793   AU        0.483594    0.262278    0.788394     0.007504
NI3794   NI        0.583884    0.202420    0.787006     0.004307
NI3795   NI        0.477433    0.272713    0.836406     0.004307
NI3796   NI        0.520402    0.244590    0.808491     0.004307
NI3797   NI        0.606055    0.248484    0.794369     0.004307
NI3798   NI        0.277053    0.310183    0.821410     0.004307
NI3799   NI        0.321085    0.282643    0.791262     0.004307
NI3800   NI        0.297052    0.347313    0.867369     0.004307
NI3801   NI        0.327876    0.310315    0.829070     0.004307
AU3802   AU        0.344932    0.335879    0.791791     0.007504
AU3803   AU        0.376450    0.302926    0.814086     0.007504
NI3804   NI        0.360034    0.348214    0.843131     0.004307
NI3805   NI        0.413298    0.337304    0.848484     0.004307
AU3806   AU        0.389427    0.351657    0.810887     0.007504
AU3807   AU        0.425772    0.316231    0.802138     0.007504
AU3808   AU        0.431511    0.363739    0.810472     0.007504
NI3809   NI        0.498123    0.330015    0.842719     0.004307
AU3810   AU        0.476162    0.307940    0.805011     0.007504
AU3811   AU        0.521062    0.288045    0.810574     0.007504
AU3812   AU        0.507767    0.336585    0.796102     0.007504
NI3813   NI        0.566026    0.288007    0.802216     0.004307
AU3814   AU        0.550329    0.327834    0.818989     0.007504
AU3815   AU        0.600744    0.349891    0.786294     0.007504
NI3816   NI        0.586571    0.349395    0.858616     0.004307
NI3817   NI        0.637654    0.319449    0.797009     0.004307
NI3818   NI        0.193925    0.396969    0.785386     0.004307
AU3819   AU        0.242346    0.387806    0.769625     0.007504
NI3820   NI        0.265214    0.407138    0.838347     0.004307
AU3821   AU        0.285389    0.394199    0.792650     0.007504
NI3822   NI        0.301895    0.357850    0.817304     0.004307
NI3823   NI        0.284693    0.475038    0.828910     0.004307
NI3824   NI        0.311274    0.394963    0.852036     0.004307
NI3825   NI        0.329594    0.421582    0.815303     0.004307
NI3826   NI        0.347132    0.383932    0.811059     0.004307
NI3827   NI        0.374450    0.399474    0.854460     0.004307
NI3828   NI        0.412297    0.384145    0.851771     0.004307
AU3829   AU        0.400342    0.402546    0.808876     0.007504
AU3830   AU        0.474099    0.377534    0.809086     0.007504
AU3831   AU        0.439994    0.409427    0.830843     0.007504
NI3832   NI        0.455447    0.345730    0.843397     0.004307
AU3833   AU        0.481240    0.422685    0.805131     0.007504
AU3834   AU        0.516222    0.390155    0.797010     0.007504
NI3835   NI        0.534391    0.409880    0.854220     0.004307
NI3836   NI        0.530823    0.363653    0.830707     0.004307
AU3837   AU        0.556204    0.404773    0.812387     0.007504
AU3838   AU        0.559318    0.362510    0.787127     0.007504
NI3839   NI        0.587599    0.409157    0.851418     0.004307
NI3840   NI        0.599088    0.376427    0.827503     0.004307
AU3841   AU        0.598676    0.405499    0.790971     0.007504
NI3842   NI        0.635598    0.371218    0.797314     0.004307
NI3843   NI        0.711443    0.399384    0.761626     0.004307
NI3844   NI        0.187693    0.517108    0.782605     0.004307
NI3845   NI        0.220764    0.457458    0.798116     0.004307
AU3846   AU        0.248145    0.422469    0.801071     0.007504
AU3847   AU        0.259233    0.483123    0.784555     0.007504
AU3848   AU        0.291612    0.442669    0.792811     0.007504
NI3849   NI        0.320029    0.508290    0.841455     0.004307
NI3850   NI        0.327295    0.460330    0.839256     0.004307
AU3851   AU        0.333688    0.470826    0.792241     0.007504
AU3852   AU        0.383451    0.451526    0.800110     0.007504
NI3853   NI        0.398471    0.482385    0.865188     0.004307
AU3854   AU        0.404712    0.442333    0.843724     0.007504
AU3855   AU        0.416098    0.485332    0.820445     0.007504
AU3856   AU        0.431560    0.441613    0.800348     0.007504
AU3857   AU        0.452468    0.457191    0.841338     0.007504
AU3858   AU        0.499910    0.445968    0.846118     0.007504
AU3859   AU        0.485275    0.470208    0.801133     0.007504
AU3860   AU        0.530060    0.440088    0.809637     0.007504
AU3861   AU        0.523812    0.488847    0.827738     0.007504
NI3862   NI        0.556085    0.454765    0.850389     0.004307
AU3863   AU        0.531907    0.476234    0.784862     0.007504
AU3864   AU        0.581833    0.444261    0.814065     0.007504
NI3865   NI        0.566979    0.504430    0.848070     0.004307
NI3866   NI        0.607149    0.461985    0.844273     0.004307
NI3867   NI        0.615327    0.483616    0.802501     0.004307
NI3868   NI        0.625927    0.440564    0.813448     0.004307
NI3869   NI        0.688803    0.464566    0.817489     0.004307
NI3870   NI        0.226220    0.511584    0.799970     0.004307
NI3871   NI        0.282447    0.523220    0.829079     0.004307
NI3872   NI        0.246657    0.549021    0.818490     0.004307
AU3873   AU        0.302731    0.511910    0.785384     0.007504
NI3874   NI        0.313427    0.559409    0.860990     0.004307
NI3875   NI        0.360860    0.483393    0.832227     0.004307
AU3876   AU        0.344000    0.526238    0.777822     0.007504
AU3877   AU        0.375759    0.496696    0.791355     0.007504
AU3878   AU        0.362510    0.536005    0.820876     0.007504
NI3879   NI        0.402899    0.525808    0.843102     0.004307
AU3880   AU        0.406692    0.559165    0.812300     0.007504
AU3881   AU        0.439714    0.528559    0.819945     0.007504
NI3882   NI        0.442552    0.565933    0.853958     0.004307
AU3883   AU        0.481873    0.511268    0.823243     0.007504
AU3884   AU        0.477905    0.546833    0.789423     0.007504
AU3885   AU        0.510994    0.514274    0.790844     0.007504
NI3886   NI        0.487953    0.553059    0.837244     0.004307
NI3887   NI        0.529320    0.556844    0.864679     0.004307
NI3888   NI        0.528969    0.597592    0.837672     0.004307
AU3889   AU        0.557758    0.516771    0.805645     0.007504
NI3890   NI        0.607134    0.562763    0.824569     0.004307
NI3891   NI        0.603738    0.520074    0.827347     0.004307
AU3892   AU        0.608577    0.546334    0.783198     0.007504
NI3893   NI        0.653964    0.509819    0.786851     0.004307
NI3894   NI        0.277569    0.581692    0.830868     0.004307
NI3895   NI        0.314058    0.606835    0.802978     0.004307
AU3896   AU        0.314073    0.554664    0.806858     0.007504
AU3897   AU        0.319669    0.616320    0.760412     0.007504
AU3898   AU        0.367631    0.589823    0.810066     0.007504
NI3899   NI        0.352181    0.623738    0.830710     0.004307
NI3900   NI        0.376525    0.568094    0.849297     0.004307
NI3901   NI        0.387939    0.636956    0.804203     0.004307
AU3902   AU        0.453069    0.579858    0.806561     0.007504
NI3903   NI        0.401689    0.615091    0.853363     0.004307
NI3904   NI        0.484423    0.596338    0.842368     0.004307
AU3905   AU        0.473924    0.623320    0.797741     0.007504
AU3906   AU        0.505564    0.587832    0.800354     0.007504
NI3907   NI        0.427306    0.616368    0.820499     0.004307
NI3908   NI        0.564477    0.611954    0.811514     0.004307
NI3909   NI        0.528042    0.630716    0.801397     0.004307
AU3910   AU        0.564606    0.563074    0.799845     0.007504
NI3911   NI        0.642166    0.591289    0.772635     0.004307
NI3912   NI        0.344758    0.654223    0.783929     0.004307
NI3913   NI        0.440218    0.737728    0.776140     0.004307
AU3914   AU        0.435659    0.657294    0.796672     0.007504
NI3915   NI        0.427030    0.696591    0.823186     0.004307
NI3916   NI        0.510540    0.687920    0.778871     0.004307
NI3917   NI        0.347488    0.368986    0.880962     0.004307
NI3918   NI        0.459382    0.376392    0.879502     0.004307
NI3919   NI        0.495100    0.393066    0.848561     0.004307
NI3920   NI        0.359922    0.450266    0.865057     0.004307
NI3921   NI        0.448459    0.500634    0.858235     0.004307
NI3922   NI        0.464123    0.424117    0.874110     0.004307
NI3923   NI        0.499662    0.515807    0.866276     0.004307
NI3924   NI        0.544284    0.363819    0.876237     0.004307
NI3925   NI        0.424048    0.543310    0.882646     0.004307
