data_00001
_audit_creation_method   'DISCUS'

_data_chemical_name_common 'Au.cell: Pearson 85'

_cell_length_a             61.1835
_cell_length_b             57.1046
_cell_length_c             61.1835
_cell_angle_alpha     90.0000
_cell_angle_beta      90.0000
_cell_angle_gamma     90.0000

_symmetry_space_group_name_H-M   'P1              '

loop_
_atom_site_label
_atom_site_symbol
_atom_site_fract_x
_atom_site_fract_y
_atom_site_fract_z
_atom_site_u_iso_or_equiv
PD1   PD        0.389464    0.285405    0.101447     0.005394
PD2   PD        0.438061    0.346326    0.061786     0.005394
PD3   PD        0.523167    0.291906    0.105215     0.005394
PD4   PD        0.281290    0.384618    0.049105     0.005394
AU5   AU        0.356725    0.324836    0.105181     0.007504
AU6   AU        0.389637    0.361460    0.106166     0.007504
AU7   AU        0.421387    0.327249    0.105429     0.007504
PD8   PD        0.454372    0.365399    0.101591     0.005394
PD9   PD        0.490802    0.328671    0.105131     0.005394
PD10   PD        0.523991    0.362361    0.105262     0.005394
AU11   AU        0.555328    0.326061    0.107199     0.007504
PD12   PD        0.586436    0.360990    0.107126     0.005394
PD13   PD        0.227638    0.363254    0.062532     0.005394
PD14   PD        0.321957    0.431105    0.104082     0.005394
PD15   PD        0.353103    0.396666    0.102368     0.005394
AU16   AU        0.388254    0.431514    0.103011     0.007504
AU17   AU        0.421518    0.397587    0.103433     0.007504
AU18   AU        0.420773    0.431796    0.069321     0.007504
PD19   PD        0.456738    0.396913    0.070449     0.005394
AU20   AU        0.454752    0.433196    0.105502     0.007504
AU21   AU        0.489474    0.400442    0.102901     0.007504
PD22   PD        0.522999    0.393834    0.070965     0.005394
PD23   PD        0.524301    0.435667    0.102405     0.005394
PD24   PD        0.555094    0.396789    0.103919     0.005394
PD25   PD        0.591914    0.433944    0.106668     0.005394
PD26   PD        0.619143    0.395206    0.107760     0.005394
AU27   AU        0.290102    0.466061    0.103837     0.007504
PD28   PD        0.322148    0.501776    0.104956     0.005394
PD29   PD        0.356792    0.469999    0.099685     0.005394
AU30   AU        0.391818    0.471113    0.071590     0.007504
PD31   PD        0.390331    0.504236    0.103769     0.005394
AU32   AU        0.424111    0.469423    0.103658     0.007504
PD33   PD        0.424692    0.504012    0.066285     0.005394
AU34   AU        0.458418    0.466603    0.072160     0.007504
PD35   PD        0.454318    0.503389    0.104512     0.005394
PD36   PD        0.489019    0.467261    0.105134     0.005394
AU37   AU        0.490248    0.503872    0.069392     0.007504
PD38   PD        0.556880    0.506846    0.000667     0.005394
AU39   AU        0.520091    0.505347    0.105309     0.007504
PD40   PD        0.557628    0.469503    0.103588     0.005394
PD41   PD        0.589917    0.497335    0.032661     0.005394
PD42   PD        0.620424    0.469812    0.107282     0.005394
PD43   PD        0.292294    0.537943    0.102297     0.005394
AU44   AU        0.324333    0.571412    0.105439     0.007504
AU45   AU        0.356157    0.535984    0.106328     0.007504
PD46   PD        0.387252    0.572523    0.107015     0.005394
PD47   PD        0.423376    0.538642    0.104099     0.005394
PD48   PD        0.414752    0.539015    0.034462     0.005394
PD49   PD        0.453895    0.575890    0.105045     0.005394
AU50   AU        0.487522    0.539323    0.102262     0.007504
AU51   AU        0.520990    0.572911    0.102563     0.007504
PD52   PD        0.553734    0.536756    0.103473     0.005394
PD53   PD        0.589831    0.570596    0.103667     0.005394
PD54   PD        0.622220    0.538459    0.104493     0.005394
PD55   PD        0.356581    0.567839    0.070192     0.005394
PD56   PD        0.352250    0.684862    0.106128     0.005394
PD57   PD        0.423763    0.610418    0.106564     0.005394
PD58   PD        0.455708    0.644134    0.108020     0.005394
AU59   AU        0.488787    0.610552    0.101004     0.007504
PD60   PD        0.516572    0.646392    0.103107     0.005394
PD61   PD        0.551992    0.611694    0.102626     0.005394
PD62   PD        0.321804    0.221200    0.170774     0.005394
AU63   AU        0.389142    0.221112    0.169779     0.007504
PD64   PD        0.419886    0.183077    0.170737     0.005394
PD65   PD        0.422516    0.220247    0.137235     0.005394
AU66   AU        0.454568    0.218212    0.170820     0.007504
PD67   PD        0.485591    0.184524    0.171275     0.005394
PD68   PD        0.489144    0.219749    0.136353     0.005394
PD69   PD        0.522596    0.218890    0.169579     0.005394
PD70   PD        0.622713    0.208233    0.141616     0.005394
AU71   AU        0.256612    0.291353    0.170071     0.007504
AU72   AU        0.287501    0.252657    0.168473     0.007504
PD73   PD        0.285941    0.289823    0.138136     0.005394
AU74   AU        0.322241    0.290156    0.171157     0.007504
AU75   AU        0.353284    0.255768    0.169753     0.007504
PD76   PD        0.352909    0.289946    0.135316     0.005394
PD77   PD        0.389369    0.254054    0.138286     0.005394
PD78   PD        0.386238    0.290597    0.169659     0.005394
PD79   PD        0.422706    0.257740    0.173573     0.005394
AU80   AU        0.420803    0.289474    0.137894     0.007504
PD81   PD        0.453758    0.257048    0.140015     0.005394
PD82   PD        0.456300    0.296150    0.172423     0.005394
AU83   AU        0.489450    0.258060    0.171020     0.007504
PD84   PD        0.487046    0.289666    0.135948     0.005394
PD85   PD        0.556567    0.255249    0.100163     0.005394
PD86   PD        0.522516    0.290202    0.171057     0.005394
AU87   AU        0.557186    0.251994    0.170666     0.007504
PD88   PD        0.553266    0.289486    0.140471     0.005394
PD89   PD        0.588448    0.291870    0.169432     0.005394
PD90   PD        0.621955    0.253666    0.171569     0.005394
PD91   PD        0.622582    0.290137    0.138673     0.005394
PD92   PD        0.654818    0.288136    0.173303     0.005394
PD93   PD        0.223917    0.329457    0.165812     0.005394
PD94   PD        0.256741    0.360192    0.170178     0.005394
PD95   PD        0.289805    0.327606    0.170680     0.005394
PD96   PD        0.287396    0.361384    0.135573     0.005394
PD97   PD        0.322553    0.326328    0.136630     0.005394
AU98   AU        0.319794    0.361900    0.169277     0.007504
AU99   AU        0.352701    0.326888    0.170668     0.007504
AU100   AU        0.354076    0.363333    0.135887     0.007504
AU101   AU        0.387939    0.324940    0.139387     0.007504
AU102   AU        0.386798    0.361744    0.170510     0.007504
PD103   PD        0.421920    0.324276    0.171841     0.005394
AU104   AU        0.420717    0.363403    0.138684     0.007504
PD105   PD        0.456665    0.327377    0.134913     0.005394
AU106   AU        0.455709    0.362917    0.169200     0.007504
AU107   AU        0.490952    0.326469    0.169761     0.007504
AU108   AU        0.490166    0.362538    0.136353     0.007504
AU109   AU        0.521981    0.326291    0.138692     0.007504
AU110   AU        0.522449    0.364610    0.171199     0.007504
AU111   AU        0.556070    0.326210    0.170348     0.007504
AU112   AU        0.554593    0.362387    0.139267     0.007504
PD113   PD        0.588801    0.327769    0.138678     0.005394
PD114   PD        0.591922    0.359412    0.172795     0.005394
PD115   PD        0.620601    0.322670    0.171325     0.005394
PD116   PD        0.620801    0.360334    0.137583     0.005394
PD117   PD        0.654121    0.360816    0.171034     0.005394
PD118   PD        0.684313    0.324396    0.168713     0.005394
PD119   PD        0.191502    0.430255    0.169225     0.005394
AU120   AU        0.224253    0.395350    0.169850     0.007504
PD121   PD        0.222727    0.434273    0.135362     0.005394
PD122   PD        0.255931    0.398056    0.136241     0.005394
PD123   PD        0.255622    0.436256    0.171632     0.005394
AU124   AU        0.287028    0.397020    0.170447     0.007504
AU125   AU        0.289978    0.433734    0.139470     0.007504
PD126   PD        0.320692    0.398856    0.138520     0.005394
AU127   AU        0.320428    0.433658    0.171599     0.007504
PD128   PD        0.354989    0.394769    0.169426     0.005394
AU129   AU        0.354781    0.432122    0.137353     0.007504
PD130   PD        0.388350    0.397175    0.137467     0.005394
PD131   PD        0.387841    0.432117    0.171546     0.005394
AU132   AU        0.420466    0.398456    0.169127     0.007504
AU133   AU        0.421842    0.432234    0.137891     0.007504
AU134   AU        0.454866    0.396850    0.136073     0.007504
PD135   PD        0.456708    0.431509    0.169603     0.005394
AU136   AU        0.489048    0.398619    0.170372     0.007504
AU137   AU        0.491080    0.430799    0.136500     0.007504
PD138   PD        0.523827    0.399392    0.135780     0.005394
PD139   PD        0.520010    0.431625    0.170304     0.005394
PD140   PD        0.558678    0.399834    0.169868     0.005394
PD141   PD        0.556650    0.433160    0.140466     0.005394
PD142   PD        0.589580    0.396760    0.138107     0.005394
AU143   AU        0.591182    0.432902    0.170877     0.007504
AU144   AU        0.622049    0.397071    0.171367     0.007504
AU145   AU        0.622364    0.430992    0.138149     0.007504
PD146   PD        0.654443    0.394763    0.138100     0.005394
AU147   AU        0.652556    0.434665    0.173633     0.007504
AU148   AU        0.685955    0.397776    0.172357     0.007504
PD149   PD        0.685451    0.433408    0.139482     0.005394
PD150   PD        0.720545    0.432379    0.170518     0.005394
PD151   PD        0.160645    0.500379    0.134620     0.005394
AU152   AU        0.221715    0.468494    0.170633     0.007504
PD153   PD        0.224825    0.504408    0.137170     0.005394
AU154   AU        0.256859    0.468082    0.137827     0.007504
AU155   AU        0.255972    0.501543    0.169660     0.007504
PD156   PD        0.288786    0.466976    0.171764     0.005394
AU157   AU        0.289165    0.503013    0.136995     0.007504
AU158   AU        0.322752    0.468185    0.137147     0.007504
AU159   AU        0.322285    0.504576    0.169452     0.007504
AU160   AU        0.356050    0.467925    0.170473     0.007504
AU161   AU        0.354454    0.500625    0.136823     0.007504
AU162   AU        0.388601    0.467975    0.135211     0.007504
PD163   PD        0.387397    0.501613    0.171054     0.005394
AU164   AU        0.423449    0.465985    0.171754     0.007504
PD165   PD        0.424212    0.501617    0.136554     0.005394
AU166   AU        0.456522    0.467658    0.139674     0.007504
PD167   PD        0.455904    0.502926    0.169668     0.005394
AU168   AU        0.488721    0.468607    0.170878     0.007504
PD169   PD        0.487352    0.503014    0.136914     0.005394
PD170   PD        0.522595    0.466851    0.136346     0.005394
AU171   AU        0.522545    0.502231    0.170372     0.007504
PD172   PD        0.553734    0.467228    0.170339     0.005394
PD173   PD        0.556040    0.505430    0.136415     0.005394
AU174   AU        0.587201    0.469250    0.140653     0.007504
PD175   PD        0.589917    0.504398    0.173216     0.005394
AU176   AU        0.622278    0.469538    0.171204     0.007504
PD177   PD        0.621225    0.505247    0.135794     0.005394
AU178   AU        0.653579    0.468865    0.140970     0.007504
PD179   PD        0.655088    0.504049    0.172811     0.005394
PD180   PD        0.688213    0.466193    0.172942     0.005394
PD181   PD        0.686510    0.500769    0.136552     0.005394
AU182   AU        0.719091    0.501755    0.168965     0.007504
AU183   AU        0.222905    0.538165    0.171113     0.007504
AU184   AU        0.256627    0.538386    0.136968     0.007504
AU185   AU        0.256663    0.574164    0.169366     0.007504
AU186   AU        0.288710    0.539813    0.171370     0.007504
PD187   PD        0.248610    0.546195    0.075407     0.005394
AU188   AU        0.321343    0.538769    0.136983     0.007504
AU189   AU        0.320195    0.574140    0.166746     0.007504
PD190   PD        0.353599    0.539067    0.170542     0.005394
AU191   AU        0.356548    0.573816    0.138081     0.007504
PD192   PD        0.388160    0.538131    0.140886     0.005394
AU193   AU        0.388579    0.575013    0.171503     0.007504
AU194   AU        0.421145    0.539515    0.170481     0.007504
AU195   AU        0.422011    0.572952    0.138744     0.007504
PD196   PD        0.457231    0.538364    0.137075     0.005394
PD197   PD        0.455262    0.573767    0.172377     0.005394
PD198   PD        0.486972    0.541032    0.172196     0.005394
AU199   AU        0.485226    0.575586    0.136404     0.007504
AU200   AU        0.520446    0.540620    0.137413     0.007504
AU201   AU        0.523520    0.574909    0.168875     0.007504
AU202   AU        0.555316    0.540019    0.171112     0.007504
AU203   AU        0.554560    0.574719    0.136152     0.007504
AU204   AU        0.585968    0.539958    0.138342     0.007504
AU205   AU        0.587539    0.574797    0.168902     0.007504
AU206   AU        0.621715    0.538031    0.169603     0.007504
AU207   AU        0.620046    0.576265    0.137625     0.007504
PD208   PD        0.686734    0.570721    0.135032     0.005394
PD209   PD        0.653348    0.575500    0.168791     0.005394
AU210   AU        0.687192    0.538582    0.172015     0.007504
PD211   PD        0.224377    0.611238    0.170765     0.005394
AU212   AU        0.256870    0.645744    0.170332     0.007504
AU213   AU        0.287968    0.609353    0.171380     0.007504
PD214   PD        0.258850    0.649173    0.106340     0.005394
PD215   PD        0.327385    0.610616    0.132415     0.005394
AU216   AU        0.319924    0.645843    0.171989     0.007504
PD217   PD        0.353004    0.609172    0.172213     0.005394
PD218   PD        0.367205    0.633350    0.064447     0.005394
AU219   AU        0.388304    0.610923    0.138335     0.007504
PD220   PD        0.388764    0.647862    0.169051     0.005394
PD221   PD        0.422944    0.609705    0.173031     0.005394
PD222   PD        0.422256    0.645219    0.141170     0.005394
PD223   PD        0.453794    0.609980    0.140432     0.005394
AU224   AU        0.456795    0.646110    0.172394     0.007504
PD225   PD        0.486864    0.608240    0.169564     0.005394
PD226   PD        0.489782    0.642547    0.138598     0.005394
PD227   PD        0.523830    0.609479    0.134883     0.005394
PD228   PD        0.520414    0.642602    0.170224     0.005394
AU229   AU        0.554795    0.610481    0.171797     0.007504
PD230   PD        0.554228    0.647144    0.139813     0.005394
PD231   PD        0.585225    0.610667    0.137014     0.005394
AU232   AU        0.586475    0.644855    0.172260     0.007504
AU233   AU        0.620128    0.611762    0.169535     0.007504
PD234   PD        0.656590    0.706476    0.149527     0.005394
PD235   PD        0.653921    0.650525    0.172716     0.005394
PD236   PD        0.688614    0.610540    0.167836     0.005394
AU237   AU        0.287243    0.683033    0.170826     0.007504
AU238   AU        0.320315    0.717227    0.169890     0.007504
AU239   AU        0.352016    0.681920    0.170258     0.007504
PD240   PD        0.439853    0.639393    0.046218     0.005394
PD241   PD        0.343843    0.756007    0.111366     0.005394
PD242   PD        0.424674    0.681125    0.170361     0.005394
PD243   PD        0.423913    0.717326    0.141453     0.005394
PD244   PD        0.456195    0.680338    0.138724     0.005394
PD245   PD        0.459060    0.718190    0.168606     0.005394
PD246   PD        0.487945    0.680264    0.174930     0.005394
PD247   PD        0.498531    0.695941    0.099702     0.005394
PD248   PD        0.521389    0.682477    0.137415     0.005394
AU249   AU        0.522406    0.718804    0.173702     0.007504
PD250   PD        0.556757    0.683272    0.170591     0.005394
PD251   PD        0.575736    0.725019    0.158318     0.005394
AU252   AU        0.619832    0.682516    0.169795     0.007504
PD253   PD        0.452206    0.787482    0.123870     0.005394
PD254   PD        0.521020    0.785986    0.169326     0.005394
PD255   PD        0.323009    0.151702    0.238153     0.005394
PD256   PD        0.388777    0.145540    0.236763     0.005394
PD257   PD        0.424007    0.113369    0.235484     0.005394
PD258   PD        0.424377    0.146017    0.203214     0.005394
PD259   PD        0.457279    0.150954    0.238211     0.005394
PD260   PD        0.485052    0.112660    0.236391     0.005394
PD261   PD        0.489920    0.148997    0.205543     0.005394
PD262   PD        0.519849    0.145583    0.239692     0.005394
AU263   AU        0.591030    0.145356    0.236501     0.007504
AU264   AU        0.254849    0.218388    0.238784     0.007504
PD265   PD        0.286640    0.182309    0.236480     0.005394
AU266   AU        0.287605    0.217055    0.202135     0.007504
AU267   AU        0.320415    0.185060    0.203860     0.007504
PD268   PD        0.321981    0.219502    0.234580     0.005394
AU269   AU        0.356468    0.182939    0.234800     0.007504
AU270   AU        0.356178    0.219792    0.202812     0.007504
PD271   PD        0.385896    0.184096    0.204460     0.005394
AU272   AU        0.387539    0.220043    0.237061     0.007504
PD273   PD        0.421955    0.184319    0.238938     0.005394
PD274   PD        0.421185    0.221003    0.202664     0.005394
AU275   AU        0.451280    0.183266    0.203088     0.007504
AU276   AU        0.454274    0.218116    0.236409     0.007504
PD277   PD        0.490718    0.182409    0.240958     0.005394
PD278   PD        0.487529    0.218315    0.204400     0.005394
PD279   PD        0.522245    0.182217    0.205493     0.005394
PD280   PD        0.523491    0.218980    0.235334     0.005394
AU281   AU        0.558413    0.181082    0.237753     0.007504
AU282   AU        0.554837    0.217832    0.203970     0.007504
AU283   AU        0.591716    0.184685    0.206592     0.007504
AU284   AU        0.588561    0.218899    0.236883     0.007504
AU285   AU        0.624360    0.182410    0.240213     0.007504
PD286   PD        0.624370    0.217196    0.206380     0.005394
AU287   AU        0.655290    0.219909    0.236511     0.007504
PD288   PD        0.189887    0.293823    0.238662     0.005394
PD289   PD        0.223388    0.254927    0.234390     0.005394
PD290   PD        0.223107    0.292755    0.201727     0.005394
PD291   PD        0.255737    0.253079    0.202136     0.005394
PD292   PD        0.253321    0.285638    0.236004     0.005394
PD293   PD        0.287307    0.254912    0.235416     0.005394
AU294   AU        0.289360    0.290949    0.204502     0.007504
AU295   AU        0.320375    0.255005    0.203902     0.007504
AU296   AU        0.320833    0.289460    0.237192     0.007504
AU297   AU        0.353280    0.254011    0.235135     0.007504
PD298   PD        0.353500    0.289258    0.203468     0.005394
PD299   PD        0.388829    0.257080    0.204640     0.005394
PD300   PD        0.387808    0.291412    0.235327     0.005394
PD301   PD        0.420078    0.254880    0.234333     0.005394
PD302   PD        0.424213    0.290784    0.203777     0.005394
PD303   PD        0.457278    0.255792    0.201752     0.005394
PD304   PD        0.456718    0.289938    0.233767     0.005394
PD305   PD        0.486025    0.256471    0.234006     0.005394
AU306   AU        0.490274    0.292970    0.203448     0.007504
PD307   PD        0.520516    0.254598    0.203780     0.005394
AU308   AU        0.523725    0.292351    0.233129     0.007504
PD309   PD        0.555515    0.254108    0.238111     0.005394
PD310   PD        0.556291    0.286704    0.204194     0.005394
PD311   PD        0.592019    0.251335    0.203885     0.005394
AU312   AU        0.588201    0.288405    0.235617     0.007504
AU313   AU        0.622123    0.254151    0.237094     0.007504
PD314   PD        0.621372    0.289189    0.203686     0.005394
PD315   PD        0.657170    0.256661    0.205170     0.005394
AU316   AU        0.655690    0.290476    0.238544     0.007504
AU317   AU        0.689326    0.255454    0.237095     0.007504
AU318   AU        0.687654    0.293387    0.205826     0.007504
PD319   PD        0.719992    0.292356    0.239325     0.005394
AU320   AU        0.156791    0.328504    0.236778     0.007504
PD321   PD        0.190439    0.324903    0.204256     0.005394
PD322   PD        0.189654    0.364019    0.237628     0.005394
AU323   AU        0.223587    0.326461    0.234379     0.007504
PD324   PD        0.222189    0.362045    0.204217     0.005394
AU325   AU        0.256601    0.325918    0.203901     0.007504
PD326   PD        0.255786    0.362910    0.236531     0.005394
PD327   PD        0.289959    0.326474    0.237922     0.005394
AU328   AU        0.286288    0.362486    0.203309     0.007504
PD329   PD        0.318399    0.325006    0.203815     0.005394
AU330   AU        0.320966    0.362438    0.233516     0.007504
AU331   AU        0.353451    0.327521    0.236979     0.007504
PD332   PD        0.353478    0.361263    0.201858     0.005394
PD333   PD        0.388080    0.326768    0.203000     0.005394
PD334   PD        0.388012    0.363157    0.234506     0.005394
PD335   PD        0.420788    0.325214    0.235372     0.005394
AU336   AU        0.422491    0.361290    0.204888     0.007504
PD337   PD        0.458012    0.325616    0.203483     0.005394
PD338   PD        0.455930    0.359869    0.233425     0.005394
AU339   AU        0.490515    0.327079    0.236697     0.007504
AU340   AU        0.488212    0.360881    0.202082     0.007504
PD341   PD        0.523093    0.327909    0.200826     0.005394
AU342   AU        0.523135    0.362182    0.235565     0.007504
AU343   AU        0.554659    0.326837    0.234989     0.007504
AU344   AU        0.557539    0.361830    0.202832     0.007504
AU345   AU        0.587095    0.324600    0.203906     0.007504
PD346   PD        0.589537    0.362658    0.237510     0.005394
AU347   AU        0.622408    0.324705    0.237932     0.007504
PD348   PD        0.622263    0.363198    0.204515     0.005394
PD349   PD        0.653607    0.328676    0.204685     0.005394
AU350   AU        0.653418    0.362802    0.235813     0.007504
PD351   PD        0.686107    0.327556    0.237865     0.005394
AU352   AU        0.686510    0.359808    0.204316     0.007504
PD353   PD        0.718817    0.326119    0.200751     0.005394
AU354   AU        0.721607    0.361164    0.236952     0.007504
PD355   PD        0.751459    0.325749    0.236545     0.005394
PD356   PD        0.123030    0.434045    0.238798     0.005394
PD357   PD        0.156885    0.397727    0.238615     0.005394
AU358   AU        0.160380    0.468141    0.169415     0.007504
AU359   AU        0.189900    0.399452    0.204756     0.007504
AU360   AU        0.189888    0.433226    0.236375     0.007504
PD361   PD        0.224448    0.396682    0.237112     0.005394
AU362   AU        0.222311    0.432679    0.202407     0.007504
AU363   AU        0.254973    0.399288    0.204384     0.007504
AU364   AU        0.256547    0.435198    0.237833     0.007504
PD365   PD        0.287193    0.400153    0.235608     0.005394
PD366   PD        0.289300    0.432148    0.204251     0.005394
PD367   PD        0.319144    0.397158    0.203503     0.005394
AU368   AU        0.321125    0.433916    0.235551     0.007504
AU369   AU        0.352704    0.396032    0.236007     0.007504
AU370   AU        0.354860    0.432863    0.203854     0.007504
AU371   AU        0.388062    0.396642    0.201550     0.007504
AU372   AU        0.384741    0.429777    0.235877     0.007504
PD373   PD        0.421130    0.399263    0.237538     0.005394
PD374   PD        0.422555    0.431988    0.202746     0.005394
PD375   PD        0.453559    0.399912    0.202045     0.005394
AU376   AU        0.454454    0.431336    0.237052     0.007504
PD377   PD        0.486692    0.395621    0.236600     0.005394
AU378   AU        0.489416    0.432982    0.204454     0.007504
PD379   PD        0.524177    0.398284    0.201833     0.005394
AU380   AU        0.521762    0.432367    0.234860     0.007504
AU381   AU        0.556414    0.396851    0.234576     0.007504
AU382   AU        0.556246    0.434580    0.203595     0.007504
AU383   AU        0.589208    0.397339    0.203199     0.007504
PD384   PD        0.590023    0.435054    0.236033     0.005394
AU385   AU        0.621284    0.398166    0.237006     0.007504
AU386   AU        0.621338    0.434333    0.205345     0.007504
AU387   AU        0.655328    0.397333    0.203589     0.007504
PD388   PD        0.653271    0.431464    0.237787     0.005394
PD389   PD        0.688682    0.395462    0.235653     0.005394
AU390   AU        0.685798    0.431436    0.204983     0.007504
PD391   PD        0.721109    0.397665    0.202282     0.005394
AU392   AU        0.722611    0.429436    0.235643     0.007504
PD393   PD        0.757080    0.397957    0.234734     0.005394
PD394   PD        0.755891    0.430276    0.201605     0.005394
PD395   PD        0.786219    0.434296    0.240465     0.005394
PD396   PD        0.088534    0.538855    0.239437     0.005394
PD397   PD        0.157401    0.466691    0.235958     0.005394
PD398   PD        0.155631    0.505464    0.202426     0.005394
AU399   AU        0.189991    0.467080    0.204317     0.007504
AU400   AU        0.189640    0.505643    0.236839     0.007504
AU401   AU        0.223502    0.468524    0.235486     0.007504
AU402   AU        0.221991    0.503043    0.203248     0.007504
PD403   PD        0.256509    0.469197    0.204893     0.005394
AU404   AU        0.255751    0.504022    0.236699     0.007504
PD405   PD        0.287560    0.471275    0.236483     0.005394
AU406   AU        0.289536    0.503540    0.202702     0.007504
AU407   AU        0.322022    0.469912    0.202386     0.007504
AU408   AU        0.323110    0.505173    0.236600     0.007504
AU409   AU        0.355396    0.470614    0.236889     0.007504
AU410   AU        0.356723    0.503267    0.203771     0.007504
AU411   AU        0.388568    0.465434    0.203060     0.007504
AU412   AU        0.389259    0.505222    0.237263     0.007504
AU413   AU        0.421760    0.467038    0.234681     0.007504
AU414   AU        0.421576    0.505239    0.203405     0.007504
AU415   AU        0.456335    0.468318    0.202450     0.007504
PD416   PD        0.453248    0.505060    0.235316     0.005394
AU417   AU        0.486614    0.468833    0.236452     0.007504
PD418   PD        0.486794    0.503694    0.202841     0.005394
AU419   AU        0.521912    0.468386    0.204501     0.007504
PD420   PD        0.522130    0.505343    0.237383     0.005394
PD421   PD        0.553800    0.469963    0.235809     0.005394
AU422   AU        0.554490    0.503106    0.202468     0.007504
PD423   PD        0.587947    0.468672    0.204911     0.005394
AU424   AU        0.589269    0.505065    0.235671     0.007504
AU425   AU        0.621043    0.469153    0.236115     0.007504
AU426   AU        0.622615    0.504145    0.203065     0.007504
AU427   AU        0.654827    0.469040    0.205978     0.007504
PD428   PD        0.655374    0.504840    0.237359     0.005394
AU429   AU        0.690029    0.467347    0.236858     0.007504
AU430   AU        0.686531    0.503086    0.202498     0.007504
AU431   AU        0.720158    0.466385    0.203738     0.007504
AU432   AU        0.720262    0.503616    0.235039     0.007504
AU433   AU        0.753176    0.467761    0.237645     0.007504
PD434   PD        0.752165    0.504432    0.201521     0.005394
PD435   PD        0.785183    0.505101    0.232726     0.005394
PD436   PD        0.156405    0.538235    0.239834     0.005394
PD437   PD        0.188247    0.540334    0.205013     0.005394
AU438   AU        0.189887    0.577194    0.237442     0.007504
AU439   AU        0.222172    0.539363    0.236126     0.007504
AU440   AU        0.222910    0.573595    0.201705     0.007504
AU441   AU        0.255616    0.538907    0.204241     0.007504
AU442   AU        0.255275    0.574533    0.236617     0.007504
AU443   AU        0.288373    0.538042    0.237133     0.007504
AU444   AU        0.289687    0.575006    0.204980     0.007504
AU445   AU        0.322811    0.536600    0.203575     0.007504
AU446   AU        0.321692    0.571070    0.236789     0.007504
AU447   AU        0.355456    0.538883    0.238292     0.007504
PD448   PD        0.351599    0.573624    0.202365     0.005394
PD449   PD        0.386331    0.540860    0.201965     0.005394
AU450   AU        0.386552    0.576290    0.236074     0.007504
PD451   PD        0.424086    0.540613    0.238457     0.005394
PD452   PD        0.421091    0.574347    0.204601     0.005394
AU453   AU        0.454493    0.540697    0.203207     0.007504
AU454   AU        0.455247    0.575240    0.237470     0.007504
AU455   AU        0.488556    0.540150    0.236320     0.007504
PD456   PD        0.487935    0.576264    0.204471     0.005394
AU457   AU        0.520227    0.541778    0.203646     0.007504
PD458   PD        0.520736    0.573732    0.237882     0.005394
AU459   AU        0.552632    0.538925    0.236162     0.007504
AU460   AU        0.553967    0.573748    0.203927     0.007504
AU461   AU        0.586650    0.541346    0.202644     0.007504
PD462   PD        0.589890    0.572738    0.233484     0.005394
PD463   PD        0.622590    0.538252    0.236227     0.005394
AU464   AU        0.622362    0.573409    0.200634     0.007504
AU465   AU        0.656790    0.538489    0.203127     0.007504
AU466   AU        0.652945    0.573569    0.234066     0.007504
AU467   AU        0.686730    0.538342    0.236923     0.007504
AU468   AU        0.685062    0.575803    0.202175     0.007504
AU469   AU        0.720118    0.541639    0.203615     0.007504
AU470   AU        0.718665    0.574786    0.236886     0.007504
PD471   PD        0.753239    0.540733    0.235096     0.005394
PD472   PD        0.154319    0.610945    0.236175     0.005394
PD473   PD        0.189111    0.609842    0.204937     0.005394
PD474   PD        0.165836    0.689850    0.174815     0.005394
AU475   AU        0.224023    0.608650    0.235908     0.007504
AU476   AU        0.224088    0.644204    0.203204     0.007504
PD477   PD        0.255405    0.608052    0.205011     0.005394
AU478   AU        0.256214    0.645236    0.238425     0.007504
AU479   AU        0.290672    0.609232    0.236843     0.007504
PD480   PD        0.288612    0.644100    0.205356     0.005394
AU481   AU        0.319601    0.608748    0.202749     0.007504
PD482   PD        0.321935    0.645434    0.233631     0.005394
AU483   AU        0.353192    0.611144    0.237545     0.007504
AU484   AU        0.354890    0.644200    0.202706     0.007504
AU485   AU        0.386557    0.610426    0.203168     0.007504
PD486   PD        0.387007    0.646563    0.237373     0.005394
AU487   AU        0.419529    0.612074    0.236724     0.007504
AU488   AU        0.420415    0.647358    0.204407     0.007504
PD489   PD        0.454297    0.609140    0.206026     0.005394
AU490   AU        0.453011    0.646562    0.237305     0.007504
PD491   PD        0.488926    0.611029    0.235773     0.005394
PD492   PD        0.486211    0.644281    0.205433     0.005394
PD493   PD        0.520015    0.609131    0.203574     0.005394
PD494   PD        0.521509    0.645779    0.237166     0.005394
AU495   AU        0.555509    0.608422    0.237289     0.007504
PD496   PD        0.552206    0.647310    0.204131     0.005394
AU497   AU        0.588463    0.609664    0.204830     0.007504
AU498   AU        0.588893    0.646006    0.236294     0.007504
AU499   AU        0.622263    0.609726    0.234693     0.007504
AU500   AU        0.619918    0.645860    0.205624     0.007504
AU501   AU        0.654427    0.611778    0.202699     0.007504
AU502   AU        0.654832    0.645430    0.236382     0.007504
PD503   PD        0.687994    0.609364    0.237207     0.005394
AU504   AU        0.686430    0.645600    0.204663     0.007504
PD505   PD        0.751160    0.612069    0.236320     0.005394
AU506   AU        0.717696    0.646319    0.236121     0.007504
AU507   AU        0.783547    0.607205    0.272448     0.007504
AU508   AU        0.224869    0.680178    0.237195     0.007504
AU509   AU        0.255252    0.678902    0.204796     0.007504
AU510   AU        0.258022    0.715990    0.235905     0.007504
PD511   PD        0.288744    0.681178    0.236362     0.005394
PD512   PD        0.290257    0.717571    0.203888     0.005394
PD513   PD        0.320085    0.679759    0.202492     0.005394
PD514   PD        0.321760    0.717849    0.237412     0.005394
PD515   PD        0.354373    0.680776    0.236931     0.005394
PD516   PD        0.355471    0.718951    0.201165     0.005394
PD517   PD        0.387049    0.681822    0.204411     0.005394
AU518   AU        0.387036    0.718457    0.235617     0.007504
AU519   AU        0.421123    0.681567    0.235313     0.007504
PD520   PD        0.422888    0.716284    0.202990     0.005394
AU521   AU        0.454735    0.680446    0.204751     0.007504
AU522   AU        0.454612    0.719316    0.236158     0.007504
AU523   AU        0.488685    0.680901    0.238072     0.007504
PD524   PD        0.488044    0.717094    0.204455     0.005394
PD525   PD        0.521560    0.679992    0.206727     0.005394
AU526   AU        0.521436    0.717558    0.238002     0.007504
PD527   PD        0.556201    0.684386    0.237057     0.005394
PD528   PD        0.554332    0.718056    0.203476     0.005394
PD529   PD        0.588542    0.681432    0.203971     0.005394
AU530   AU        0.586554    0.717758    0.237540     0.007504
PD531   PD        0.619162    0.684305    0.237136     0.005394
PD532   PD        0.621751    0.720845    0.203159     0.005394
AU533   AU        0.653993    0.681546    0.206023     0.007504
AU534   AU        0.654841    0.719948    0.237378     0.007504
PD535   PD        0.686025    0.682305    0.236243     0.005394
PD536   PD        0.289141    0.750314    0.236978     0.005394
AU537   AU        0.320479    0.752963    0.202468     0.007504
PD538   PD        0.323375    0.790103    0.237225     0.005394
AU539   AU        0.355239    0.753546    0.235459     0.007504
AU540   AU        0.389899    0.754495    0.203674     0.007504
AU541   AU        0.389446    0.789481    0.235662     0.007504
AU542   AU        0.420424    0.752899    0.236650     0.007504
PD543   PD        0.423663    0.789830    0.201078     0.005394
AU544   AU        0.454895    0.752374    0.203547     0.007504
AU545   AU        0.455199    0.786571    0.238225     0.007504
AU546   AU        0.486965    0.752352    0.239363     0.007504
PD547   PD        0.487070    0.786999    0.204689     0.005394
PD548   PD        0.520392    0.753466    0.208494     0.005394
PD549   PD        0.520644    0.788742    0.238677     0.005394
AU550   AU        0.555425    0.753047    0.239534     0.007504
PD551   PD        0.585470    0.754354    0.202225     0.005394
PD552   PD        0.586379    0.789359    0.239212     0.005394
PD553   PD        0.619844    0.753732    0.237200     0.005394
PD554   PD        0.425028    0.820726    0.234248     0.005394
PD555   PD        0.488499    0.822706    0.236067     0.005394
PD556   PD        0.391399    0.076157    0.301819     0.005394
PD557   PD        0.489557    0.040932    0.231503     0.005394
PD558   PD        0.522960    0.076624    0.304124     0.005394
AU559   AU        0.256988    0.149036    0.303369     0.007504
PD560   PD        0.294066    0.112086    0.299744     0.005394
PD561   PD        0.288448    0.148991    0.269673     0.005394
PD562   PD        0.322685    0.148803    0.298867     0.005394
AU563   AU        0.356309    0.115013    0.304225     0.007504
PD564   PD        0.355095    0.150623    0.268844     0.005394
AU565   AU        0.390130    0.112092    0.267287     0.007504
AU566   AU        0.390520    0.145270    0.305996     0.007504
PD567   PD        0.422673    0.110872    0.302660     0.005394
PD568   PD        0.420564    0.146841    0.270337     0.005394
PD569   PD        0.457958    0.109004    0.270614     0.005394
PD570   PD        0.454644    0.144985    0.302032     0.005394
AU571   AU        0.489290    0.110123    0.304312     0.007504
PD572   PD        0.488994    0.144722    0.272127     0.005394
AU573   AU        0.523468    0.112274    0.272563     0.007504
PD574   PD        0.524660    0.146470    0.306354     0.005394
PD575   PD        0.557242    0.111822    0.302940     0.005394
PD576   PD        0.556555    0.144831    0.271600     0.005394
PD577   PD        0.587398    0.147290    0.303279     0.005394
PD578   PD        0.623262    0.110454    0.304750     0.005394
PD579   PD        0.624092    0.148414    0.271963     0.005394
AU580   AU        0.656279    0.146267    0.301906     0.007504
AU581   AU        0.188093    0.217533    0.305015     0.007504
PD582   PD        0.221030    0.181924    0.301702     0.005394
PD583   PD        0.194056    0.218328    0.240268     0.005394
AU584   AU        0.256554    0.182550    0.271330     0.007504
AU585   AU        0.253790    0.218498    0.302281     0.007504
AU586   AU        0.290670    0.184347    0.305465     0.007504
AU587   AU        0.289262    0.219326    0.268799     0.007504
PD588   PD        0.323021    0.186741    0.267580     0.005394
PD589   PD        0.322968    0.221189    0.301066     0.005394
PD590   PD        0.354793    0.185197    0.302139     0.005394
AU591   AU        0.355044    0.220866    0.268292     0.007504
AU592   AU        0.389148    0.184451    0.269907     0.007504
PD593   PD        0.388101    0.218566    0.303147     0.005394
AU594   AU        0.423220    0.182677    0.303153     0.007504
PD595   PD        0.423579    0.219871    0.270109     0.005394
PD596   PD        0.458621    0.184202    0.271865     0.005394
PD597   PD        0.458649    0.218980    0.303285     0.005394
PD598   PD        0.487236    0.183496    0.299677     0.005394
AU599   AU        0.489674    0.219446    0.268606     0.007504
AU600   AU        0.522726    0.184442    0.271758     0.007504
PD601   PD        0.523791    0.218272    0.304344     0.005394
AU602   AU        0.555031    0.184052    0.305001     0.007504
AU603   AU        0.556714    0.217940    0.270040     0.007504
AU604   AU        0.588697    0.183624    0.271210     0.007504
PD605   PD        0.586908    0.220356    0.304915     0.005394
PD606   PD        0.621602    0.185335    0.301811     0.005394
AU607   AU        0.620467    0.219907    0.268746     0.007504
AU608   AU        0.656506    0.185053    0.271994     0.007504
PD609   PD        0.654158    0.220558    0.303411     0.005394
PD610   PD        0.687885    0.181431    0.304412     0.005394
AU611   AU        0.688008    0.219622    0.270446     0.007504
AU612   AU        0.721359    0.218438    0.302440     0.007504
PD613   PD        0.120469    0.291319    0.300323     0.005394
AU614   AU        0.157314    0.252959    0.303054     0.007504
PD615   PD        0.154213    0.289694    0.267158     0.005394
AU616   AU        0.190592    0.258152    0.271516     0.007504
AU617   AU        0.187934    0.290603    0.302853     0.007504
PD618   PD        0.223338    0.254006    0.302636     0.005394
AU619   AU        0.221962    0.291437    0.269446     0.007504
AU620   AU        0.255362    0.256626    0.270440     0.007504
AU621   AU        0.255323    0.290099    0.302661     0.007504
PD622   PD        0.287248    0.251881    0.301571     0.005394
PD623   PD        0.289720    0.288971    0.269577     0.005394
AU624   AU        0.321511    0.255029    0.268027     0.007504
PD625   PD        0.325625    0.288368    0.302603     0.005394
AU626   AU        0.358110    0.253248    0.301863     0.007504
AU627   AU        0.356007    0.287827    0.269413     0.007504
PD628   PD        0.389818    0.252062    0.270383     0.005394
PD629   PD        0.386929    0.291983    0.304315     0.005394
PD630   PD        0.422942    0.255171    0.305624     0.005394
PD631   PD        0.423118    0.286536    0.271882     0.005394
PD632   PD        0.456339    0.255438    0.269579     0.005394
PD633   PD        0.457880    0.290052    0.302598     0.005394
PD634   PD        0.491014    0.252997    0.304897     0.005394
PD635   PD        0.490894    0.292821    0.266316     0.005394
AU636   AU        0.522740    0.254968    0.268573     0.007504
AU637   AU        0.520716    0.290500    0.302891     0.007504
AU638   AU        0.553378    0.256957    0.301869     0.007504
AU639   AU        0.553388    0.290529    0.268803     0.007504
PD640   PD        0.588077    0.254598    0.269617     0.005394
PD641   PD        0.587575    0.290137    0.304576     0.005394
AU642   AU        0.620590    0.255814    0.303316     0.007504
PD643   PD        0.622470    0.291885    0.268701     0.005394
AU644   AU        0.654794    0.253839    0.270712     0.007504
AU645   AU        0.654392    0.289111    0.301909     0.007504
AU646   AU        0.686075    0.254155    0.303310     0.007504
AU647   AU        0.686267    0.292838    0.270839     0.007504
PD648   PD        0.717275    0.256856    0.272964     0.005394
PD649   PD        0.721150    0.293758    0.301857     0.005394
PD650   PD        0.750543    0.256540    0.305218     0.005394
AU651   AU        0.757064    0.289882    0.272244     0.007504
PD652   PD        0.785217    0.288358    0.307083     0.005394
PD653   PD        0.121862    0.363520    0.300795     0.005394
AU654   AU        0.154003    0.324234    0.301479     0.007504
AU655   AU        0.155735    0.360693    0.269568     0.007504
PD656   PD        0.190813    0.328763    0.269128     0.005394
PD657   PD        0.189617    0.361408    0.301361     0.005394
PD658   PD        0.221569    0.326782    0.303304     0.005394
PD659   PD        0.225468    0.361265    0.269304     0.005394
PD660   PD        0.255179    0.326415    0.266911     0.005394
PD661   PD        0.255746    0.361942    0.303856     0.005394
PD662   PD        0.288940    0.325928    0.300131     0.005394
AU663   AU        0.288286    0.362832    0.267624     0.007504
PD664   PD        0.323344    0.326128    0.267974     0.005394
PD665   PD        0.322647    0.361252    0.300597     0.005394
AU666   AU        0.356715    0.326676    0.301939     0.007504
PD667   PD        0.354455    0.363666    0.271039     0.005394
AU668   AU        0.389253    0.323259    0.268557     0.007504
PD669   PD        0.391646    0.361452    0.300115     0.005394
PD670   PD        0.423026    0.326104    0.303705     0.005394
PD671   PD        0.421673    0.364259    0.272081     0.005394
AU672   AU        0.457015    0.325922    0.269600     0.007504
AU673   AU        0.455401    0.363137    0.302965     0.007504
AU674   AU        0.490445    0.327334    0.302038     0.007504
PD675   PD        0.490085    0.362232    0.271302     0.005394
PD676   PD        0.521038    0.328431    0.268546     0.005394
AU677   AU        0.523232    0.362723    0.302611     0.007504
AU678   AU        0.554582    0.326485    0.300949     0.007504
AU679   AU        0.556382    0.363086    0.268314     0.007504
AU680   AU        0.588868    0.323836    0.268321     0.007504
AU681   AU        0.588532    0.360672    0.302053     0.007504
AU682   AU        0.621297    0.323534    0.303724     0.007504
AU683   AU        0.622904    0.363865    0.270709     0.007504
PD684   PD        0.654753    0.328183    0.271100     0.005394
PD685   PD        0.653602    0.359311    0.304622     0.005394
PD686   PD        0.686887    0.328626    0.302649     0.005394
AU687   AU        0.688805    0.362519    0.269238     0.007504
PD688   PD        0.719203    0.327073    0.268834     0.005394
PD689   PD        0.720064    0.361394    0.303521     0.005394
AU690   AU        0.754972    0.325510    0.303668     0.007504
PD691   PD        0.756101    0.358005    0.269647     0.005394
PD692   PD        0.789461    0.358736    0.302730     0.005394
PD693   PD        0.089350    0.396646    0.303117     0.005394
AU694   AU        0.124644    0.397311    0.269125     0.007504
AU695   AU        0.124480    0.433422    0.302708     0.007504
AU696   AU        0.155942    0.396856    0.303215     0.007504
AU697   AU        0.159186    0.432408    0.271114     0.007504
PD698   PD        0.190265    0.398976    0.270698     0.005394
PD699   PD        0.191303    0.433940    0.302975     0.005394
PD700   PD        0.222748    0.399259    0.302599     0.005394
AU701   AU        0.222493    0.434188    0.269200     0.007504
PD702   PD        0.254418    0.397089    0.268793     0.005394
AU703   AU        0.255109    0.433664    0.303077     0.007504
PD704   PD        0.288372    0.401117    0.302771     0.005394
PD705   PD        0.288019    0.434270    0.268238     0.005394
AU706   AU        0.321517    0.397275    0.269502     0.007504
AU707   AU        0.322647    0.432984    0.303149     0.007504
AU708   AU        0.356396    0.398700    0.304130     0.007504
AU709   AU        0.354404    0.432324    0.270182     0.007504
AU710   AU        0.386961    0.397886    0.270099     0.007504
PD711   PD        0.387288    0.433827    0.302957     0.005394
AU712   AU        0.421409    0.399307    0.303936     0.007504
PD713   PD        0.421480    0.430008    0.269710     0.005394
AU714   AU        0.454835    0.396525    0.269793     0.007504
AU715   AU        0.455300    0.431341    0.303139     0.007504
AU716   AU        0.487483    0.397952    0.304461     0.007504
AU717   AU        0.490595    0.431798    0.269722     0.007504
AU718   AU        0.521916    0.397939    0.268662     0.007504
PD719   PD        0.522922    0.432749    0.302622     0.005394
PD720   PD        0.554020    0.398027    0.302124     0.005394
PD721   PD        0.558147    0.432070    0.268951     0.005394
AU722   AU        0.589395    0.398309    0.270627     0.007504
AU723   AU        0.587999    0.435487    0.302917     0.007504
PD724   PD        0.621685    0.399131    0.304390     0.005394
AU725   AU        0.620774    0.433046    0.268597     0.007504
PD726   PD        0.656702    0.395538    0.270071     0.005394
PD727   PD        0.654518    0.433085    0.301739     0.005394
AU728   AU        0.689687    0.397159    0.302820     0.007504
PD729   PD        0.691101    0.430517    0.268039     0.005394
AU730   AU        0.721691    0.396467    0.269531     0.007504
AU731   AU        0.721005    0.430155    0.303873     0.007504
AU732   AU        0.755774    0.394550    0.303166     0.007504
PD733   PD        0.753087    0.430161    0.269747     0.005394
PD734   PD        0.790398    0.324167    0.206802     0.005394
AU735   AU        0.786260    0.434740    0.301554     0.007504
PD736   PD        0.819851    0.398609    0.305682     0.005394
PD737   PD        0.092688    0.469986    0.300267     0.005394
PD738   PD        0.127605    0.468070    0.270301     0.005394
AU739   AU        0.125518    0.504348    0.305192     0.007504
AU740   AU        0.156756    0.468813    0.303703     0.007504
PD741   PD        0.156828    0.505985    0.269297     0.005394
AU742   AU        0.190374    0.470134    0.269127     0.007504
AU743   AU        0.189051    0.506434    0.303744     0.007504
AU744   AU        0.221604    0.470635    0.302279     0.007504
AU745   AU        0.223451    0.505720    0.269912     0.007504
AU746   AU        0.255081    0.469916    0.270217     0.007504
AU747   AU        0.255781    0.507283    0.301635     0.007504
AU748   AU        0.288485    0.469806    0.302140     0.007504
AU749   AU        0.289412    0.505008    0.269645     0.007504
AU750   AU        0.323814    0.468287    0.271054     0.007504
AU751   AU        0.321242    0.504578    0.303854     0.007504
AU752   AU        0.355076    0.467865    0.302810     0.007504
AU753   AU        0.356577    0.503000    0.271086     0.007504
AU754   AU        0.390273    0.467493    0.267488     0.007504
AU755   AU        0.390543    0.502614    0.303262     0.007504
PD756   PD        0.423525    0.466145    0.300655     0.005394
PD757   PD        0.422182    0.503263    0.270904     0.005394
AU758   AU        0.455822    0.465970    0.267818     0.007504
AU759   AU        0.453778    0.502703    0.303019     0.007504
PD760   PD        0.490025    0.464873    0.300515     0.005394
PD761   PD        0.486936    0.502333    0.267854     0.005394
AU762   AU        0.522887    0.466302    0.267921     0.007504
PD763   PD        0.519230    0.500325    0.302895     0.005394
AU764   AU        0.553751    0.467704    0.301184     0.007504
PD765   PD        0.557709    0.505259    0.271351     0.005394
PD766   PD        0.588742    0.466245    0.268857     0.005394
PD767   PD        0.589343    0.503839    0.301344     0.005394
AU768   AU        0.622184    0.468948    0.302973     0.007504
AU769   AU        0.621817    0.502307    0.270664     0.007504
AU770   AU        0.655141    0.465670    0.268457     0.007504
PD771   PD        0.653334    0.505790    0.304121     0.005394
PD772   PD        0.689058    0.469455    0.303418     0.005394
AU773   AU        0.688217    0.503378    0.268686     0.007504
AU774   AU        0.722137    0.465984    0.271963     0.007504
PD775   PD        0.721375    0.503252    0.302082     0.005394
PD776   PD        0.754895    0.471521    0.302892     0.005394
PD777   PD        0.751507    0.502264    0.269134     0.005394
PD778   PD        0.785668    0.470324    0.269536     0.005394
AU779   AU        0.787355    0.503934    0.302141     0.007504
PD780   PD        0.822791    0.469154    0.303745     0.005394
PD781   PD        0.088972    0.537709    0.303867     0.005394
AU782   AU        0.122594    0.539571    0.271737     0.007504
AU783   AU        0.123318    0.576070    0.304795     0.007504
AU784   AU        0.157169    0.541284    0.304304     0.007504
AU785   AU        0.156087    0.575090    0.271655     0.007504
AU786   AU        0.190884    0.538774    0.269946     0.007504
AU787   AU        0.189423    0.575835    0.301039     0.007504
PD788   PD        0.222425    0.539860    0.301659     0.005394
AU789   AU        0.223131    0.575678    0.269960     0.007504
AU790   AU        0.256100    0.539840    0.268586     0.007504
AU791   AU        0.256690    0.574826    0.302735     0.007504
AU792   AU        0.290109    0.539012    0.302058     0.007504
PD793   PD        0.289010    0.574301    0.268547     0.005394
PD794   PD        0.321642    0.538415    0.269810     0.005394
AU795   AU        0.323525    0.576310    0.305076     0.007504
PD796   PD        0.356034    0.540036    0.301061     0.005394
AU797   AU        0.355991    0.576140    0.270777     0.007504
PD798   PD        0.389171    0.539928    0.271279     0.005394
AU799   AU        0.390110    0.575550    0.301686     0.007504
PD800   PD        0.421164    0.538844    0.304021     0.005394
AU801   AU        0.420929    0.576153    0.268831     0.007504
AU802   AU        0.453752    0.539061    0.270832     0.007504
AU803   AU        0.453329    0.575417    0.301738     0.007504
AU804   AU        0.488779    0.538789    0.304475     0.007504
AU805   AU        0.487901    0.573537    0.271220     0.007504
PD806   PD        0.521212    0.540000    0.271077     0.005394
PD807   PD        0.522905    0.573887    0.304982     0.005394
PD808   PD        0.556722    0.538079    0.303044     0.005394
PD809   PD        0.554577    0.573879    0.269177     0.005394
AU810   AU        0.590820    0.539828    0.270078     0.007504
AU811   AU        0.587834    0.573766    0.303754     0.007504
AU812   AU        0.620989    0.540396    0.303089     0.007504
PD813   PD        0.621430    0.576226    0.268979     0.005394
AU814   AU        0.655068    0.539793    0.268514     0.007504
PD815   PD        0.654274    0.576308    0.302383     0.005394
PD816   PD        0.689396    0.539093    0.301376     0.005394
AU817   AU        0.685723    0.574271    0.270579     0.007504
PD818   PD        0.720333    0.540337    0.270851     0.005394
AU819   AU        0.720556    0.575442    0.301939     0.007504
AU820   AU        0.752577    0.541167    0.301718     0.007504
PD821   PD        0.753035    0.573801    0.268331     0.005394
AU822   AU        0.785052    0.537177    0.270478     0.007504
AU823   AU        0.785771    0.573496    0.304689     0.007504
AU824   AU        0.819579    0.539001    0.302548     0.007504
AU825   AU        0.123734    0.645911    0.304942     0.007504
AU826   AU        0.156303    0.610392    0.303240     0.007504
PD827   PD        0.154776    0.645393    0.271004     0.005394
AU828   AU        0.191281    0.611942    0.268076     0.007504
PD829   PD        0.188236    0.643256    0.301084     0.005394
AU830   AU        0.223393    0.610536    0.301735     0.007504
AU831   AU        0.222756    0.646173    0.267617     0.007504
AU832   AU        0.256815    0.608521    0.269270     0.007504
AU833   AU        0.255992    0.646519    0.302542     0.007504
AU834   AU        0.289764    0.611067    0.301626     0.007504
AU835   AU        0.289270    0.646156    0.270023     0.007504
PD836   PD        0.321962    0.610773    0.270284     0.005394
AU837   AU        0.323872    0.645556    0.302774     0.007504
AU838   AU        0.356202    0.610120    0.303365     0.007504
PD839   PD        0.354252    0.646710    0.269721     0.005394
AU840   AU        0.387803    0.610348    0.267658     0.007504
AU841   AU        0.389489    0.643855    0.303475     0.007504
AU842   AU        0.423040    0.612097    0.303268     0.007504
AU843   AU        0.422201    0.645783    0.269224     0.007504
AU844   AU        0.455123    0.609358    0.270168     0.007504
AU845   AU        0.454544    0.647880    0.302409     0.007504
PD846   PD        0.490162    0.607813    0.303452     0.005394
AU847   AU        0.487296    0.645685    0.271086     0.007504
AU848   AU        0.521114    0.612012    0.270584     0.007504
PD849   PD        0.522435    0.647732    0.305277     0.005394
AU850   AU        0.556084    0.611449    0.302707     0.007504
PD851   PD        0.556788    0.647003    0.270843     0.005394
PD852   PD        0.588071    0.611409    0.269089     0.005394
PD853   PD        0.588764    0.645767    0.303514     0.005394
AU854   AU        0.620185    0.610695    0.301335     0.007504
PD855   PD        0.620490    0.647317    0.269746     0.005394
PD856   PD        0.654553    0.610473    0.270493     0.005394
PD857   PD        0.655639    0.645148    0.304157     0.005394
PD858   PD        0.686377    0.610344    0.303924     0.005394
PD859   PD        0.686502    0.644563    0.269623     0.005394
AU860   AU        0.720399    0.609463    0.269196     0.007504
PD861   PD        0.716528    0.645713    0.305391     0.005394
PD862   PD        0.752044    0.608624    0.302168     0.005394
PD863   PD        0.748349    0.646589    0.272324     0.005394
PD864   PD        0.788097    0.649096    0.300892     0.005394
AU865   AU        0.154892    0.680324    0.302340     0.007504
AU866   AU        0.189478    0.680721    0.270659     0.007504
AU867   AU        0.188375    0.717643    0.301359     0.007504
AU868   AU        0.223964    0.682278    0.300977     0.007504
AU869   AU        0.222684    0.718305    0.268802     0.007504
PD870   PD        0.258085    0.680873    0.269984     0.005394
PD871   PD        0.255871    0.715814    0.304781     0.005394
PD872   PD        0.289215    0.680742    0.301681     0.005394
AU873   AU        0.289751    0.716513    0.270060     0.007504
AU874   AU        0.321179    0.680336    0.268998     0.007504
AU875   AU        0.322955    0.715624    0.303215     0.007504
AU876   AU        0.354973    0.681126    0.301413     0.007504
AU877   AU        0.356104    0.717994    0.271959     0.007504
AU878   AU        0.389761    0.682738    0.269386     0.007504
AU879   AU        0.388025    0.719084    0.301799     0.007504
AU880   AU        0.421571    0.680618    0.304161     0.007504
PD881   PD        0.420048    0.717214    0.270496     0.005394
AU882   AU        0.453098    0.683849    0.269374     0.007504
AU883   AU        0.452984    0.716914    0.303594     0.007504
PD884   PD        0.486795    0.682862    0.303612     0.005394
AU885   AU        0.485631    0.715785    0.269300     0.007504
PD886   PD        0.519915    0.681923    0.270538     0.005394
AU887   AU        0.519588    0.715478    0.303049     0.007504
AU888   AU        0.557011    0.682191    0.304178     0.007504
AU889   AU        0.555471    0.717617    0.271720     0.007504
AU890   AU        0.588628    0.682984    0.272520     0.007504
AU891   AU        0.588375    0.718484    0.302749     0.007504
AU892   AU        0.622551    0.683106    0.301681     0.007504
PD893   PD        0.622262    0.717979    0.269970     0.005394
PD894   PD        0.654225    0.680699    0.267389     0.005394
PD895   PD        0.654978    0.717006    0.302650     0.005394
AU896   AU        0.686281    0.682457    0.303223     0.007504
PD897   PD        0.686284    0.717790    0.270342     0.005394
PD898   PD        0.791479    0.708974    0.234728     0.005394
PD899   PD        0.719369    0.721187    0.300807     0.005394
PD900   PD        0.753924    0.681901    0.302988     0.005394
PD901   PD        0.192157    0.785137    0.301639     0.005394
PD902   PD        0.258124    0.750879    0.269293     0.005394
PD903   PD        0.254352    0.789372    0.306067     0.005394
PD904   PD        0.288978    0.752982    0.304986     0.005394
PD905   PD        0.290112    0.787793    0.268645     0.005394
AU906   AU        0.322823    0.753695    0.268575     0.007504
PD907   PD        0.321614    0.787793    0.301118     0.005394
PD908   PD        0.354887    0.751674    0.300679     0.005394
AU909   AU        0.357434    0.789552    0.270015     0.007504
AU910   AU        0.388948    0.753702    0.269426     0.007504
PD911   PD        0.391457    0.788387    0.303621     0.005394
AU912   AU        0.422031    0.752329    0.302084     0.007504
AU913   AU        0.421772    0.787496    0.269002     0.007504
AU914   AU        0.454770    0.754261    0.270419     0.007504
AU915   AU        0.454963    0.787672    0.304261     0.007504
AU916   AU        0.488186    0.749936    0.302785     0.007504
AU917   AU        0.486727    0.787912    0.270676     0.007504
AU918   AU        0.521217    0.750688    0.269516     0.007504
AU919   AU        0.519699    0.787764    0.302550     0.007504
AU920   AU        0.555125    0.751671    0.303879     0.007504
PD921   PD        0.555444    0.788405    0.271599     0.005394
PD922   PD        0.588192    0.752039    0.270995     0.005394
PD923   PD        0.589053    0.785902    0.304503     0.005394
AU924   AU        0.619908    0.753628    0.305429     0.007504
PD925   PD        0.617955    0.788199    0.273644     0.005394
AU926   AU        0.650852    0.752802    0.271022     0.007504
AU927   AU        0.654006    0.788990    0.303722     0.007504
AU928   AU        0.684648    0.752242    0.303410     0.007504
PD929   PD        0.287869    0.826590    0.308478     0.005394
AU930   AU        0.355121    0.822600    0.303039     0.007504
PD931   PD        0.391804    0.855671    0.238746     0.005394
PD932   PD        0.387350    0.860657    0.305604     0.005394
PD933   PD        0.421226    0.823605    0.302408     0.005394
AU934   AU        0.456546    0.824942    0.269250     0.007504
PD935   PD        0.452214    0.897754    0.340610     0.005394
AU936   AU        0.487025    0.823443    0.303807     0.007504
PD937   PD        0.518797    0.826041    0.271410     0.005394
PD938   PD        0.572202    0.844922    0.259139     0.005394
PD939   PD        0.584827    0.860502    0.301157     0.005394
PD940   PD        0.619703    0.824738    0.304870     0.005394
AU941   AU        0.322468    0.079370    0.369295     0.007504
PD942   PD        0.355958    0.078854    0.335837     0.005394
AU943   AU        0.388885    0.077789    0.366095     0.007504
AU944   AU        0.424343    0.078710    0.336555     0.007504
PD945   PD        0.456255    0.075900    0.365891     0.005394
PD946   PD        0.489519    0.075522    0.335638     0.005394
AU947   AU        0.521558    0.075668    0.371256     0.007504
AU948   AU        0.555752    0.079076    0.336912     0.007504
PD949   PD        0.592436    0.079496    0.367125     0.005394
PD950   PD        0.223135    0.144404    0.336118     0.005394
AU951   AU        0.255251    0.147848    0.367033     0.007504
AU952   AU        0.290006    0.112718    0.367515     0.007504
AU953   AU        0.288202    0.148194    0.335368     0.007504
PD954   PD        0.322368    0.113722    0.336830     0.005394
PD955   PD        0.321933    0.146152    0.367348     0.005394
AU956   AU        0.356786    0.113630    0.369315     0.007504
PD957   PD        0.354082    0.147049    0.336676     0.005394
PD958   PD        0.389299    0.115774    0.340432     0.005394
PD959   PD        0.387961    0.147819    0.372306     0.005394
AU960   AU        0.421130    0.111354    0.370406     0.007504
PD961   PD        0.423174    0.144282    0.337761     0.005394
PD962   PD        0.457814    0.111738    0.338465     0.005394
PD963   PD        0.454667    0.144803    0.369551     0.005394
AU964   AU        0.489759    0.111906    0.371510     0.007504
AU965   AU        0.490275    0.148556    0.334217     0.007504
AU966   AU        0.521870    0.111265    0.335376     0.007504
PD967   PD        0.520322    0.146888    0.372132     0.005394
AU968   AU        0.557145    0.113683    0.371935     0.007504
PD969   PD        0.555431    0.146190    0.338604     0.005394
PD970   PD        0.587849    0.113520    0.337060     0.005394
PD971   PD        0.589259    0.150049    0.370362     0.005394
PD972   PD        0.622736    0.115134    0.367172     0.005394
PD973   PD        0.622273    0.150412    0.335357     0.005394
AU974   AU        0.654811    0.148016    0.369709     0.007504
PD975   PD        0.688122    0.145665    0.335253     0.005394
PD976   PD        0.120851    0.221083    0.367684     0.005394
PD977   PD        0.187728    0.184729    0.335067     0.005394
AU978   AU        0.188245    0.219847    0.369081     0.007504
AU979   AU        0.223284    0.184601    0.369458     0.007504
AU980   AU        0.223956    0.218156    0.336183     0.007504
AU981   AU        0.255068    0.183267    0.336510     0.007504
AU982   AU        0.257038    0.219556    0.369647     0.007504
AU983   AU        0.290841    0.182939    0.368401     0.007504
PD984   PD        0.287127    0.219050    0.335941     0.005394
PD985   PD        0.323699    0.185789    0.334666     0.005394
PD986   PD        0.321326    0.219730    0.364765     0.005394
PD987   PD        0.352404    0.182197    0.370667     0.005394
AU988   AU        0.355411    0.217567    0.336260     0.007504
PD989   PD        0.386986    0.182390    0.336442     0.005394
PD990   PD        0.390739    0.224463    0.368759     0.005394
PD991   PD        0.419942    0.183182    0.369034     0.005394
PD992   PD        0.422528    0.216629    0.333809     0.005394
PD993   PD        0.456099    0.181126    0.337174     0.005394
AU994   AU        0.456902    0.217226    0.369598     0.007504
PD995   PD        0.489348    0.184422    0.368787     0.005394
PD996   PD        0.488817    0.215565    0.335421     0.005394
PD997   PD        0.522187    0.183125    0.338143     0.005394
PD998   PD        0.518689    0.218082    0.371116     0.005394
AU999   AU        0.554511    0.183857    0.367400     0.007504
PD1000   PD        0.553868    0.218628    0.336836     0.005394
PD1001   PD        0.589167    0.185689    0.337740     0.005394
AU1002   AU        0.587905    0.220272    0.369225     0.007504
PD1003   PD        0.620771    0.182061    0.372828     0.005394
AU1004   AU        0.622720    0.219223    0.336460     0.007504
PD1005   PD        0.653904    0.182543    0.337210     0.005394
PD1006   PD        0.654736    0.214773    0.370945     0.005394
AU1007   AU        0.689001    0.184679    0.368767     0.007504
PD1008   PD        0.685717    0.219242    0.336730     0.005394
PD1009   PD        0.720838    0.187656    0.336450     0.005394
PD1010   PD        0.718065    0.221399    0.370654     0.005394
PD1011   PD        0.822176    0.142486    0.336172     0.005394
PD1012   PD        0.125857    0.293562    0.368205     0.005394
AU1013   AU        0.155206    0.252711    0.368707     0.007504
PD1014   PD        0.154554    0.290301    0.336320     0.005394
AU1015   AU        0.189456    0.255717    0.334540     0.007504
PD1016   PD        0.188111    0.289651    0.366572     0.005394
AU1017   AU        0.222943    0.254256    0.368598     0.007504
PD1018   PD        0.221790    0.290363    0.336374     0.005394
AU1019   AU        0.255846    0.252978    0.336839     0.007504
AU1020   AU        0.256393    0.290074    0.370069     0.007504
PD1021   PD        0.288316    0.254882    0.368106     0.005394
AU1022   AU        0.289309    0.289550    0.333241     0.007504
PD1023   PD        0.321945    0.254706    0.335192     0.005394
AU1024   AU        0.321196    0.291204    0.368436     0.007504
PD1025   PD        0.354286    0.256074    0.370747     0.005394
PD1026   PD        0.356925    0.291656    0.336411     0.005394
PD1027   PD        0.387674    0.257370    0.336672     0.005394
AU1028   AU        0.388526    0.290285    0.371115     0.007504
AU1029   AU        0.422717    0.251451    0.366235     0.007504
PD1030   PD        0.420841    0.289874    0.336919     0.005394
AU1031   AU        0.455649    0.255463    0.335543     0.007504
AU1032   AU        0.456562    0.289562    0.368239     0.007504
AU1033   AU        0.487236    0.252945    0.368784     0.007504
AU1034   AU        0.488915    0.291365    0.335221     0.007504
PD1035   PD        0.523793    0.255712    0.336998     0.005394
PD1036   PD        0.522073    0.290769    0.368507     0.005394
PD1037   PD        0.552084    0.255201    0.368279     0.005394
PD1038   PD        0.554649    0.291924    0.334267     0.005394
AU1039   AU        0.585096    0.256726    0.334878     0.007504
AU1040   AU        0.586427    0.289605    0.370438     0.007504
AU1041   AU        0.622549    0.255531    0.368261     0.007504
AU1042   AU        0.621864    0.289475    0.337485     0.007504
AU1043   AU        0.655265    0.255482    0.338824     0.007504
PD1044   PD        0.654893    0.292258    0.368700     0.005394
AU1045   AU        0.687645    0.254006    0.369431     0.007504
AU1046   AU        0.687512    0.291131    0.335827     0.007504
AU1047   AU        0.717855    0.255022    0.334495     0.007504
AU1048   AU        0.719325    0.289810    0.370956     0.007504
PD1049   PD        0.753478    0.255628    0.368505     0.005394
AU1050   AU        0.750323    0.292142    0.337166     0.007504
AU1051   AU        0.787442    0.291174    0.370566     0.007504
PD1052   PD        0.090309    0.327229    0.367617     0.005394
PD1053   PD        0.090782    0.363202    0.335723     0.005394
PD1054   PD        0.123250    0.324604    0.333160     0.005394
AU1055   AU        0.123960    0.362969    0.368554     0.007504
AU1056   AU        0.155865    0.327290    0.369535     0.007504
AU1057   AU        0.155769    0.361399    0.333621     0.007504
PD1058   PD        0.186837    0.326649    0.333210     0.005394
PD1059   PD        0.190196    0.359411    0.368923     0.005394
PD1060   PD        0.220580    0.323479    0.367357     0.005394
AU1061   AU        0.224513    0.361993    0.336962     0.007504
AU1062   AU        0.255993    0.324499    0.334828     0.007504
AU1063   AU        0.257756    0.359849    0.367922     0.007504
AU1064   AU        0.289843    0.324333    0.368430     0.007504
PD1065   PD        0.288510    0.363234    0.335817     0.005394
PD1066   PD        0.321912    0.326587    0.337148     0.005394
PD1067   PD        0.324048    0.361338    0.371115     0.005394
AU1068   AU        0.355611    0.326149    0.370002     0.007504
AU1069   AU        0.356684    0.362173    0.336425     0.007504
PD1070   PD        0.388294    0.328479    0.332880     0.005394
PD1071   PD        0.389481    0.363745    0.367788     0.005394
PD1072   PD        0.420820    0.326206    0.369351     0.005394
PD1073   PD        0.422524    0.363155    0.334687     0.005394
PD1074   PD        0.453502    0.324496    0.336651     0.005394
AU1075   AU        0.453582    0.361561    0.367599     0.007504
AU1076   AU        0.488772    0.325490    0.369598     0.007504
AU1077   AU        0.489867    0.362856    0.335771     0.007504
AU1078   AU        0.522915    0.327274    0.337515     0.007504
AU1079   AU        0.520387    0.363646    0.369326     0.007504
PD1080   PD        0.554133    0.327813    0.369200     0.005394
AU1081   AU        0.555626    0.363403    0.334119     0.007504
AU1082   AU        0.587837    0.324348    0.334068     0.007504
PD1083   PD        0.589198    0.361857    0.367356     0.005394
AU1084   AU        0.619579    0.324678    0.367182     0.007504
PD1085   PD        0.619450    0.361430    0.334744     0.005394
AU1086   AU        0.655463    0.325574    0.335291     0.007504
AU1087   AU        0.653703    0.360721    0.368923     0.007504
AU1088   AU        0.687741    0.329010    0.369785     0.007504
PD1089   PD        0.688536    0.362906    0.333578     0.005394
AU1090   AU        0.720768    0.328537    0.337632     0.007504
AU1091   AU        0.721317    0.363389    0.369129     0.007504
AU1092   AU        0.753390    0.325002    0.372602     0.007504
PD1093   PD        0.754679    0.360002    0.336278     0.005394
PD1094   PD        0.785161    0.325432    0.336566     0.005394
PD1095   PD        0.787124    0.363438    0.371870     0.005394
PD1096   PD        0.815535    0.327856    0.371993     0.005394
PD1097   PD        0.821118    0.359773    0.337615     0.005394
PD1098   PD        0.088247    0.400790    0.366200     0.005394
AU1099   AU        0.089727    0.435912    0.334116     0.007504
AU1100   AU        0.122343    0.397259    0.335698     0.007504
AU1101   AU        0.124114    0.431772    0.369116     0.007504
PD1102   PD        0.156085    0.397658    0.369283     0.005394
AU1103   AU        0.157700    0.433307    0.333428     0.007504
AU1104   AU        0.189782    0.396715    0.335074     0.007504
PD1105   PD        0.190057    0.430650    0.366527     0.005394
PD1106   PD        0.224690    0.398371    0.368335     0.005394
AU1107   AU        0.223281    0.433570    0.335309     0.007504
AU1108   AU        0.255676    0.396762    0.335329     0.007504
PD1109   PD        0.256070    0.436142    0.366989     0.005394
PD1110   PD        0.290185    0.398050    0.368493     0.005394
AU1111   AU        0.289464    0.434706    0.336974     0.007504
AU1112   AU        0.322645    0.397226    0.334315     0.007504
AU1113   AU        0.321076    0.434655    0.368942     0.007504
AU1114   AU        0.354131    0.397809    0.368392     0.007504
AU1115   AU        0.355667    0.432158    0.336499     0.007504
AU1116   AU        0.389890    0.398193    0.335846     0.007504
PD1117   PD        0.388097    0.432784    0.367795     0.005394
PD1118   PD        0.422589    0.397280    0.367137     0.005394
AU1119   AU        0.421629    0.434295    0.335718     0.007504
PD1120   PD        0.456214    0.398469    0.337098     0.005394
AU1121   AU        0.456009    0.434229    0.368525     0.007504
AU1122   AU        0.487070    0.398778    0.368423     0.007504
PD1123   PD        0.490362    0.434253    0.335122     0.005394
AU1124   AU        0.522335    0.397657    0.335567     0.007504
AU1125   AU        0.521022    0.433660    0.367884     0.007504
PD1126   PD        0.555421    0.399517    0.367026     0.005394
PD1127   PD        0.555358    0.432454    0.333848     0.005394
AU1128   AU        0.587329    0.400248    0.333242     0.007504
PD1129   PD        0.588071    0.436018    0.370281     0.005394
PD1130   PD        0.621673    0.399729    0.366823     0.005394
AU1131   AU        0.620507    0.433988    0.336041     0.007504
AU1132   AU        0.655436    0.398778    0.335544     0.007504
PD1133   PD        0.656211    0.433788    0.370670     0.005394
PD1134   PD        0.687115    0.398776    0.368877     0.005394
PD1135   PD        0.686565    0.434066    0.334717     0.005394
PD1136   PD        0.721654    0.396829    0.336781     0.005394
PD1137   PD        0.721664    0.430592    0.367515     0.005394
PD1138   PD        0.755262    0.397680    0.371489     0.005394
PD1139   PD        0.754346    0.433936    0.334558     0.005394
PD1140   PD        0.789937    0.398288    0.336790     0.005394
PD1141   PD        0.787225    0.430746    0.370534     0.005394
PD1142   PD        0.819365    0.398106    0.371693     0.005394
AU1143   AU        0.819335    0.436179    0.335331     0.007504
AU1144   AU        0.057506    0.439328    0.367159     0.007504
PD1145   PD        0.088108    0.503112    0.336356     0.005394
AU1146   AU        0.123583    0.469505    0.334831     0.007504
PD1147   PD        0.122499    0.504244    0.365829     0.005394
AU1148   AU        0.158087    0.467679    0.367974     0.007504
AU1149   AU        0.156539    0.505797    0.336105     0.007504
PD1150   PD        0.189404    0.470030    0.334443     0.005394
PD1151   PD        0.189127    0.504234    0.368547     0.005394
AU1152   AU        0.221865    0.470508    0.369182     0.007504
AU1153   AU        0.223191    0.507322    0.335849     0.007504
PD1154   PD        0.256606    0.470998    0.334679     0.005394
AU1155   AU        0.255534    0.504281    0.367063     0.007504
AU1156   AU        0.289188    0.469245    0.366962     0.007504
AU1157   AU        0.288343    0.506322    0.334328     0.007504
AU1158   AU        0.323697    0.469336    0.335312     0.007504
AU1159   AU        0.322859    0.505606    0.368710     0.007504
AU1160   AU        0.355776    0.468245    0.368085     0.007504
PD1161   PD        0.353119    0.506110    0.336372     0.005394
AU1162   AU        0.387663    0.468121    0.336053     0.007504
PD1163   PD        0.385574    0.503961    0.368455     0.005394
AU1164   AU        0.419583    0.468790    0.369412     0.007504
AU1165   AU        0.420516    0.506238    0.337883     0.007504
AU1166   AU        0.453360    0.466573    0.336854     0.007504
AU1167   AU        0.455224    0.504227    0.370267     0.007504
AU1168   AU        0.487433    0.469520    0.368849     0.007504
PD1169   PD        0.488008    0.501950    0.335881     0.005394
PD1170   PD        0.521040    0.468857    0.335524     0.005394
AU1171   AU        0.521248    0.504171    0.368713     0.007504
AU1172   AU        0.555317    0.468631    0.371303     0.007504
PD1173   PD        0.553712    0.504919    0.334874     0.005394
AU1174   AU        0.589158    0.469284    0.336495     0.007504
PD1175   PD        0.586531    0.505742    0.368563     0.005394
PD1176   PD        0.619645    0.470037    0.369499     0.005394
PD1177   PD        0.621701    0.504946    0.334767     0.005394
PD1178   PD        0.655220    0.467868    0.335576     0.005394
AU1179   AU        0.654976    0.505173    0.367017     0.007504
AU1180   AU        0.687863    0.468897    0.367495     0.007504
PD1181   PD        0.686334    0.502923    0.336412     0.005394
PD1182   PD        0.720485    0.468966    0.336324     0.005394
PD1183   PD        0.720135    0.505101    0.367826     0.005394
AU1184   AU        0.754448    0.469211    0.368981     0.007504
PD1185   PD        0.751934    0.505112    0.334513     0.005394
PD1186   PD        0.785585    0.469148    0.336980     0.005394
AU1187   AU        0.787136    0.504042    0.371295     0.007504
AU1188   AU        0.816349    0.469142    0.369741     0.007504
AU1189   AU        0.818419    0.503571    0.335971     0.007504
PD1190   PD        0.087958    0.538574    0.367442     0.005394
PD1191   PD        0.056056    0.573635    0.370575     0.005394
AU1192   AU        0.123485    0.541744    0.335524     0.007504
AU1193   AU        0.123923    0.575262    0.370528     0.007504
AU1194   AU        0.155645    0.540035    0.368853     0.007504
PD1195   PD        0.156941    0.574517    0.335828     0.005394
AU1196   AU        0.188408    0.539797    0.335935     0.007504
PD1197   PD        0.189858    0.575783    0.368516     0.005394
AU1198   AU        0.224348    0.541749    0.367736     0.007504
AU1199   AU        0.221601    0.573821    0.334975     0.007504
AU1200   AU        0.256246    0.540574    0.333657     0.007504
AU1201   AU        0.256150    0.574581    0.367571     0.007504
AU1202   AU        0.288706    0.541382    0.367611     0.007504
AU1203   AU        0.288752    0.575513    0.334752     0.007504
PD1204   PD        0.321456    0.541333    0.336384     0.005394
AU1205   AU        0.319132    0.576292    0.369266     0.007504
AU1206   AU        0.354407    0.540695    0.368776     0.007504
AU1207   AU        0.355570    0.577562    0.337124     0.007504
PD1208   PD        0.388900    0.540860    0.337792     0.005394
PD1209   PD        0.389160    0.574388    0.368519     0.005394
AU1210   AU        0.423786    0.539695    0.369045     0.007504
AU1211   AU        0.423930    0.574532    0.336562     0.007504
AU1212   AU        0.455446    0.539867    0.334986     0.007504
AU1213   AU        0.456575    0.575477    0.369409     0.007504
AU1214   AU        0.488552    0.541323    0.369272     0.007504
AU1215   AU        0.487692    0.576751    0.335273     0.007504
PD1216   PD        0.522050    0.541109    0.335820     0.005394
AU1217   AU        0.522206    0.577717    0.371568     0.007504
PD1218   PD        0.553911    0.540348    0.369944     0.005394
AU1219   AU        0.554974    0.576052    0.335585     0.007504
PD1220   PD        0.585664    0.538893    0.336199     0.005394
AU1221   AU        0.587916    0.575374    0.369811     0.007504
AU1222   AU        0.619922    0.537350    0.367776     0.007504
PD1223   PD        0.622181    0.576888    0.337543     0.005394
AU1224   AU        0.656641    0.540447    0.334602     0.007504
AU1225   AU        0.654000    0.576245    0.370155     0.007504
AU1226   AU        0.687727    0.540373    0.370185     0.007504
PD1227   PD        0.689433    0.574467    0.337662     0.005394
PD1228   PD        0.719027    0.538106    0.336160     0.005394
PD1229   PD        0.720233    0.574611    0.369839     0.005394
AU1230   AU        0.754168    0.538061    0.370275     0.007504
PD1231   PD        0.751873    0.572935    0.337919     0.005394
AU1232   AU        0.784852    0.537448    0.336973     0.007504
PD1233   PD        0.787811    0.575136    0.370294     0.005394
AU1234   AU        0.819394    0.539048    0.368807     0.007504
PD1235   PD        0.819550    0.573097    0.336739     0.005394
AU1236   AU        0.090003    0.611043    0.367610     0.007504
AU1237   AU        0.124303    0.609878    0.337320     0.007504
PD1238   PD        0.121023    0.648289    0.365980     0.005394
AU1239   AU        0.158027    0.610676    0.369261     0.007504
AU1240   AU        0.155261    0.645732    0.337048     0.007504
AU1241   AU        0.189938    0.610074    0.333710     0.007504
PD1242   PD        0.191022    0.649270    0.368617     0.005394
AU1243   AU        0.224635    0.611889    0.369169     0.007504
AU1244   AU        0.222122    0.647811    0.334982     0.007504
AU1245   AU        0.254851    0.610614    0.335732     0.007504
PD1246   PD        0.255144    0.645963    0.367759     0.005394
PD1247   PD        0.287184    0.610975    0.368856     0.005394
AU1248   AU        0.290001    0.645476    0.334411     0.007504
AU1249   AU        0.321924    0.610910    0.335743     0.007504
AU1250   AU        0.321475    0.646788    0.368760     0.007504
AU1251   AU        0.357832    0.611720    0.367698     0.007504
AU1252   AU        0.355221    0.647405    0.336820     0.007504
AU1253   AU        0.389072    0.609578    0.335890     0.007504
AU1254   AU        0.388642    0.647705    0.369715     0.007504
AU1255   AU        0.422871    0.612647    0.367952     0.007504
AU1256   AU        0.421917    0.646759    0.337152     0.007504
AU1257   AU        0.455614    0.610332    0.335324     0.007504
AU1258   AU        0.457680    0.645330    0.369004     0.007504
AU1259   AU        0.487754    0.608968    0.368622     0.007504
PD1260   PD        0.488524    0.644365    0.335319     0.005394
AU1261   AU        0.522315    0.610659    0.336404     0.007504
PD1262   PD        0.520949    0.644136    0.370111     0.005394
AU1263   AU        0.556319    0.610686    0.371059     0.007504
AU1264   AU        0.553913    0.646874    0.336469     0.007504
AU1265   AU        0.588517    0.612302    0.335415     0.007504
AU1266   AU        0.588831    0.645883    0.368243     0.007504
PD1267   PD        0.620463    0.610728    0.370175     0.005394
PD1268   PD        0.619996    0.648546    0.335362     0.005394
PD1269   PD        0.651548    0.613912    0.336007     0.005394
PD1270   PD        0.654794    0.649361    0.371393     0.005394
PD1271   PD        0.686496    0.611005    0.369170     0.005394
PD1272   PD        0.690205    0.646792    0.336802     0.005394
PD1273   PD        0.719929    0.611151    0.335560     0.005394
AU1274   AU        0.720690    0.645797    0.370014     0.007504
AU1275   AU        0.752888    0.609731    0.367576     0.007504
AU1276   AU        0.752742    0.644750    0.333750     0.007504
AU1277   AU        0.785316    0.611979    0.334561     0.007504
PD1278   PD        0.784942    0.645485    0.364965     0.005394
AU1279   AU        0.819470    0.608110    0.370289     0.007504
AU1280   AU        0.155165    0.681473    0.369014     0.007504
AU1281   AU        0.156684    0.717440    0.334386     0.007504
AU1282   AU        0.187730    0.681445    0.335934     0.007504
AU1283   AU        0.188890    0.716997    0.367817     0.007504
PD1284   PD        0.221385    0.680827    0.366664     0.005394
PD1285   PD        0.219809    0.715139    0.333929     0.005394
PD1286   PD        0.256404    0.683317    0.334606     0.005394
AU1287   AU        0.254883    0.715384    0.367184     0.007504
PD1288   PD        0.289949    0.681304    0.366849     0.005394
AU1289   AU        0.290749    0.717238    0.335141     0.007504
AU1290   AU        0.321399    0.679944    0.336298     0.007504
AU1291   AU        0.322703    0.715411    0.368630     0.007504
AU1292   AU        0.356086    0.681033    0.369823     0.007504
AU1293   AU        0.355606    0.714115    0.335376     0.007504
PD1294   PD        0.388790    0.680802    0.335498     0.005394
AU1295   AU        0.388325    0.716327    0.367587     0.007504
AU1296   AU        0.422013    0.682164    0.368672     0.007504
AU1297   AU        0.420665    0.715240    0.335169     0.007504
AU1298   AU        0.455747    0.680491    0.336970     0.007504
AU1299   AU        0.455120    0.716632    0.368778     0.007504
AU1300   AU        0.488121    0.681411    0.369945     0.007504
AU1301   AU        0.487976    0.717158    0.338878     0.007504
PD1302   PD        0.520310    0.680240    0.336635     0.005394
AU1303   AU        0.522198    0.716586    0.369534     0.007504
AU1304   AU        0.555804    0.680013    0.369876     0.007504
AU1305   AU        0.554265    0.714918    0.337305     0.007504
AU1306   AU        0.589946    0.683264    0.334872     0.007504
PD1307   PD        0.587207    0.719006    0.368388     0.005394
AU1308   AU        0.621488    0.682353    0.370169     0.007504
AU1309   AU        0.622614    0.718550    0.336372     0.007504
PD1310   PD        0.653146    0.681735    0.336636     0.005394
AU1311   AU        0.653819    0.717050    0.369312     0.007504
PD1312   PD        0.687195    0.682279    0.369711     0.005394
AU1313   AU        0.686541    0.716160    0.335285     0.007504
AU1314   AU        0.720467    0.683745    0.335740     0.007504
AU1315   AU        0.718857    0.717313    0.368858     0.007504
PD1316   PD        0.752011    0.679808    0.369119     0.005394
PD1317   PD        0.748081    0.757024    0.298917     0.005394
AU1318   AU        0.189460    0.753035    0.333914     0.007504
AU1319   AU        0.222033    0.753559    0.369426     0.007504
PD1320   PD        0.220759    0.786411    0.334953     0.005394
AU1321   AU        0.255935    0.753834    0.336833     0.007504
PD1322   PD        0.255897    0.787478    0.369578     0.005394
AU1323   AU        0.287716    0.751644    0.368044     0.007504
AU1324   AU        0.290402    0.785617    0.336668     0.007504
AU1325   AU        0.324425    0.751681    0.334590     0.007504
AU1326   AU        0.322055    0.787426    0.369123     0.007504
AU1327   AU        0.355218    0.752450    0.369754     0.007504
AU1328   AU        0.355227    0.788156    0.335291     0.007504
AU1329   AU        0.388236    0.751657    0.335350     0.007504
AU1330   AU        0.387406    0.786034    0.368620     0.007504
AU1331   AU        0.421581    0.753726    0.367277     0.007504
PD1332   PD        0.422076    0.788177    0.335716     0.005394
AU1333   AU        0.452896    0.752685    0.335859     0.007504
AU1334   AU        0.454322    0.787701    0.367561     0.007504
AU1335   AU        0.487766    0.752805    0.368068     0.007504
AU1336   AU        0.486837    0.789471    0.335344     0.007504
AU1337   AU        0.521247    0.752276    0.336254     0.007504
PD1338   PD        0.522324    0.787659    0.370732     0.005394
AU1339   AU        0.554261    0.752835    0.369620     0.007504
AU1340   AU        0.555621    0.787165    0.335011     0.007504
AU1341   AU        0.587560    0.752971    0.335911     0.007504
AU1342   AU        0.587421    0.786386    0.371186     0.007504
PD1343   PD        0.619876    0.750627    0.369858     0.005394
PD1344   PD        0.619799    0.788384    0.337384     0.005394
AU1345   AU        0.654450    0.752254    0.336078     0.007504
AU1346   AU        0.655083    0.787365    0.371397     0.007504
AU1347   AU        0.685238    0.752379    0.370504     0.007504
PD1348   PD        0.690832    0.787388    0.336389     0.005394
PD1349   PD        0.720706    0.747956    0.333334     0.005394
PD1350   PD        0.289179    0.822443    0.368488     0.005394
PD1351   PD        0.322193    0.822088    0.336165     0.005394
AU1352   AU        0.321178    0.858570    0.368808     0.007504
AU1353   AU        0.354720    0.823760    0.368873     0.007504
PD1354   PD        0.353534    0.858378    0.337536     0.005394
AU1355   AU        0.390474    0.823444    0.334788     0.007504
AU1356   AU        0.390284    0.858744    0.368910     0.007504
AU1357   AU        0.424206    0.823437    0.370699     0.007504
PD1358   PD        0.421871    0.859856    0.336875     0.005394
AU1359   AU        0.454793    0.824379    0.334927     0.007504
AU1360   AU        0.456635    0.859232    0.370373     0.007504
AU1361   AU        0.488055    0.823947    0.370769     0.007504
PD1362   PD        0.489743    0.858840    0.337916     0.005394
PD1363   PD        0.522096    0.821003    0.334865     0.005394
AU1364   AU        0.519566    0.858215    0.369836     0.007504
AU1365   AU        0.554673    0.821834    0.371048     0.007504
AU1366   AU        0.553100    0.856198    0.337163     0.007504
PD1367   PD        0.586907    0.821952    0.339561     0.005394
AU1368   AU        0.587239    0.858772    0.368190     0.007504
AU1369   AU        0.621363    0.822575    0.369406     0.007504
PD1370   PD        0.288760    0.078137    0.400736     0.005394
AU1371   AU        0.321500    0.074985    0.436030     0.007504
AU1372   AU        0.354815    0.078263    0.402167     0.007504
AU1373   AU        0.389074    0.074640    0.433628     0.007504
PD1374   PD        0.423077    0.042214    0.435914     0.005394
AU1375   AU        0.421906    0.074068    0.402288     0.007504
PD1376   PD        0.458183    0.041602    0.399809     0.005394
AU1377   AU        0.455905    0.075631    0.434099     0.007504
AU1378   AU        0.489039    0.040641    0.435687     0.007504
AU1379   AU        0.488754    0.076748    0.402352     0.007504
AU1380   AU        0.522263    0.075669    0.434738     0.007504
AU1381   AU        0.556681    0.077317    0.402639     0.007504
AU1382   AU        0.589456    0.076033    0.436522     0.007504
PD1383   PD        0.585658    0.039445    0.397795     0.005394
PD1384   PD        0.189469    0.149178    0.434617     0.005394
PD1385   PD        0.226200    0.112254    0.434225     0.005394
AU1386   AU        0.223763    0.148165    0.402037     0.007504
AU1387   AU        0.257391    0.113374    0.399612     0.007504
AU1388   AU        0.259577    0.147332    0.434136     0.007504
PD1389   PD        0.288377    0.111132    0.434780     0.005394
PD1390   PD        0.290773    0.149195    0.401203     0.005394
PD1391   PD        0.321060    0.113453    0.402619     0.005394
PD1392   PD        0.320719    0.147367    0.436621     0.005394
AU1393   AU        0.355195    0.112970    0.435079     0.007504
PD1394   PD        0.355120    0.146768    0.403116     0.005394
PD1395   PD        0.387761    0.110484    0.402391     0.005394
AU1396   AU        0.386778    0.146434    0.435704     0.007504
AU1397   AU        0.420234    0.112176    0.435074     0.007504
PD1398   PD        0.422558    0.149351    0.404166     0.005394
AU1399   AU        0.454315    0.113150    0.401945     0.007504
PD1400   PD        0.456339    0.147560    0.435838     0.005394
PD1401   PD        0.488937    0.110346    0.434709     0.005394
PD1402   PD        0.488513    0.147397    0.401530     0.005394
AU1403   AU        0.523089    0.111373    0.403818     0.007504
PD1404   PD        0.524117    0.146177    0.434396     0.005394
PD1405   PD        0.558150    0.109891    0.434676     0.005394
PD1406   PD        0.557720    0.148016    0.402238     0.005394
AU1407   AU        0.589556    0.110828    0.403019     0.007504
AU1408   AU        0.588375    0.146279    0.437170     0.007504
PD1409   PD        0.622154    0.110321    0.432535     0.005394
AU1410   AU        0.623294    0.147510    0.403174     0.007504
PD1411   PD        0.652901    0.112370    0.402319     0.005394
AU1412   AU        0.654894    0.147614    0.434606     0.007504
PD1413   PD        0.686117    0.109280    0.434456     0.005394
AU1414   AU        0.688209    0.147297    0.403069     0.007504
AU1415   AU        0.722714    0.148227    0.435246     0.007504
PD1416   PD        0.090865    0.255584    0.426061     0.005394
PD1417   PD        0.123135    0.183173    0.468781     0.005394
AU1418   AU        0.157058    0.219968    0.404397     0.007504
AU1419   AU        0.189255    0.183801    0.401947     0.007504
AU1420   AU        0.189875    0.217816    0.434619     0.007504
PD1421   PD        0.223858    0.183372    0.433145     0.005394
AU1422   AU        0.223659    0.218360    0.401293     0.007504
AU1423   AU        0.256917    0.182485    0.401298     0.007504
PD1424   PD        0.257454    0.219836    0.433705     0.005394
PD1425   PD        0.288871    0.183285    0.434973     0.005394
PD1426   PD        0.286695    0.219760    0.402280     0.005394
PD1427   PD        0.323075    0.183897    0.403424     0.005394
PD1428   PD        0.320101    0.221003    0.437162     0.005394
AU1429   AU        0.354752    0.183156    0.435491     0.007504
AU1430   AU        0.355273    0.220043    0.401358     0.007504
PD1431   PD        0.387266    0.184876    0.400406     0.005394
PD1432   PD        0.386847    0.218111    0.435598     0.005394
PD1433   PD        0.422619    0.181031    0.436275     0.005394
PD1434   PD        0.422759    0.218316    0.402908     0.005394
AU1435   AU        0.455673    0.182772    0.401457     0.007504
AU1436   AU        0.454878    0.217606    0.434874     0.007504
AU1437   AU        0.488657    0.182921    0.435643     0.007504
PD1438   PD        0.487676    0.219771    0.402609     0.005394
PD1439   PD        0.523867    0.181894    0.403677     0.005394
PD1440   PD        0.522292    0.219789    0.435112     0.005394
AU1441   AU        0.556317    0.182647    0.437350     0.007504
AU1442   AU        0.554769    0.218050    0.400471     0.007504
PD1443   PD        0.590067    0.183395    0.404404     0.005394
AU1444   AU        0.586966    0.219459    0.436747     0.007504
AU1445   AU        0.622060    0.182256    0.437964     0.007504
PD1446   PD        0.619758    0.220477    0.402383     0.005394
PD1447   PD        0.655551    0.183447    0.403815     0.005394
AU1448   AU        0.654344    0.217728    0.436120     0.007504
PD1449   PD        0.687027    0.182709    0.434589     0.005394
AU1450   AU        0.685766    0.218155    0.403936     0.007504
AU1451   AU        0.720168    0.182121    0.400813     0.007504
AU1452   AU        0.719319    0.219087    0.435314     0.007504
PD1453   PD        0.751686    0.182767    0.436339     0.005394
PD1454   PD        0.786744    0.217817    0.367459     0.005394
PD1455   PD        0.784900    0.217768    0.433101     0.005394
PD1456   PD        0.094634    0.294821    0.399907     0.005394
AU1457   AU        0.122660    0.255998    0.403764     0.007504
PD1458   PD        0.123011    0.292095    0.435024     0.005394
PD1459   PD        0.159935    0.256106    0.434820     0.005394
PD1460   PD        0.156238    0.291035    0.401626     0.005394
AU1461   AU        0.190616    0.255063    0.400470     0.007504
AU1462   AU        0.189088    0.290527    0.434739     0.007504
AU1463   AU        0.222501    0.255630    0.435151     0.007504
PD1464   PD        0.222151    0.287429    0.401525     0.005394
AU1465   AU        0.256019    0.255836    0.401606     0.007504
AU1466   AU        0.255542    0.289677    0.433551     0.007504
PD1467   PD        0.287748    0.255937    0.434151     0.005394
AU1468   AU        0.288539    0.290215    0.401762     0.007504
PD1469   PD        0.322431    0.253481    0.400132     0.005394
PD1470   PD        0.323354    0.290082    0.437830     0.005394
AU1471   AU        0.355818    0.256513    0.436251     0.007504
AU1472   AU        0.352813    0.290631    0.402806     0.007504
PD1473   PD        0.388218    0.255895    0.400848     0.005394
AU1474   AU        0.389873    0.291770    0.434713     0.007504
PD1475   PD        0.421795    0.254993    0.437138     0.005394
AU1476   AU        0.422603    0.290514    0.399576     0.007504
PD1477   PD        0.456212    0.253713    0.402327     0.005394
AU1478   AU        0.454583    0.286171    0.435520     0.007504
AU1479   AU        0.488711    0.252205    0.434602     0.007504
AU1480   AU        0.489462    0.289389    0.403817     0.007504
AU1481   AU        0.521705    0.254317    0.401741     0.007504
PD1482   PD        0.522093    0.287950    0.437234     0.005394
AU1483   AU        0.555129    0.252429    0.435102     0.007504
AU1484   AU        0.554057    0.289810    0.403334     0.007504
AU1485   AU        0.587750    0.253398    0.402549     0.007504
AU1486   AU        0.588334    0.289941    0.434985     0.007504
PD1487   PD        0.619364    0.255278    0.436980     0.005394
AU1488   AU        0.621398    0.289565    0.400934     0.007504
PD1489   PD        0.654367    0.253726    0.400459     0.005394
PD1490   PD        0.655098    0.288328    0.437839     0.005394
AU1491   AU        0.687513    0.253202    0.435233     0.007504
AU1492   AU        0.688041    0.289574    0.402763     0.007504
AU1493   AU        0.718870    0.254424    0.402998     0.007504
AU1494   AU        0.720477    0.289959    0.435469     0.007504
AU1495   AU        0.753745    0.252181    0.436056     0.007504
AU1496   AU        0.752455    0.289794    0.403320     0.007504
AU1497   AU        0.787098    0.255914    0.399419     0.007504
AU1498   AU        0.785884    0.286229    0.435647     0.007504
PD1499   PD        0.854540    0.252732    0.400970     0.005394
AU1500   AU        0.091724    0.326437    0.434957     0.007504
AU1501   AU        0.088410    0.362068    0.401670     0.007504
PD1502   PD        0.123209    0.327985    0.399205     0.005394
AU1503   AU        0.123272    0.362212    0.434404     0.007504
AU1504   AU        0.155733    0.327478    0.433847     0.007504
AU1505   AU        0.156381    0.364090    0.400196     0.007504
AU1506   AU        0.188332    0.327401    0.402558     0.007504
PD1507   PD        0.189058    0.361820    0.434668     0.005394
AU1508   AU        0.222165    0.325007    0.434817     0.007504
AU1509   AU        0.224403    0.361743    0.400897     0.007504
PD1510   PD        0.255005    0.325826    0.403632     0.005394
PD1511   PD        0.254325    0.362994    0.435086     0.005394
AU1512   AU        0.290439    0.326417    0.433987     0.007504
PD1513   PD        0.288474    0.362762    0.400301     0.005394
AU1514   AU        0.321635    0.325455    0.402485     0.007504
AU1515   AU        0.323072    0.361545    0.432674     0.007504
AU1516   AU        0.354027    0.326062    0.434540     0.007504
PD1517   PD        0.357325    0.363402    0.401892     0.005394
PD1518   PD        0.387601    0.327065    0.404515     0.005394
PD1519   PD        0.388507    0.359089    0.434126     0.005394
AU1520   AU        0.423971    0.325275    0.434892     0.007504
AU1521   AU        0.424848    0.361224    0.401907     0.007504
AU1522   AU        0.455214    0.325152    0.400923     0.007504
PD1523   PD        0.456134    0.360353    0.434814     0.005394
PD1524   PD        0.490109    0.324699    0.436607     0.005394
AU1525   AU        0.488535    0.361496    0.400664     0.007504
PD1526   PD        0.521486    0.326060    0.402136     0.005394
PD1527   PD        0.520584    0.358030    0.437367     0.005394
PD1528   PD        0.556871    0.325818    0.436754     0.005394
AU1529   AU        0.553965    0.362613    0.402723     0.007504
PD1530   PD        0.587489    0.326654    0.402719     0.005394
PD1531   PD        0.585764    0.363634    0.437365     0.005394
AU1532   AU        0.620634    0.324571    0.434312     0.007504
PD1533   PD        0.619990    0.357990    0.404554     0.005394
AU1534   AU        0.654337    0.323891    0.403393     0.007504
AU1535   AU        0.653273    0.359173    0.436450     0.007504
AU1536   AU        0.689104    0.323765    0.434879     0.007504
AU1537   AU        0.688622    0.361697    0.403899     0.007504
AU1538   AU        0.719748    0.326377    0.402505     0.007504
PD1539   PD        0.721244    0.360369    0.434563     0.005394
PD1540   PD        0.754562    0.325823    0.433393     0.005394
AU1541   AU        0.753482    0.361284    0.401977     0.007504
PD1542   PD        0.789265    0.325210    0.402558     0.005394
PD1543   PD        0.785202    0.360684    0.436182     0.005394
PD1544   PD        0.858589    0.325652    0.460906     0.005394
AU1545   AU        0.819589    0.362409    0.404497     0.007504
PD1546   PD        0.057895    0.436529    0.432307     0.005394
AU1547   AU        0.088718    0.397487    0.433700     0.007504
AU1548   AU        0.090824    0.434830    0.401896     0.007504
AU1549   AU        0.120752    0.395675    0.401663     0.007504
AU1550   AU        0.124191    0.434208    0.434129     0.007504
AU1551   AU        0.158421    0.395909    0.434973     0.007504
PD1552   PD        0.156577    0.433344    0.401219     0.005394
PD1553   PD        0.192192    0.396801    0.400860     0.005394
PD1554   PD        0.188376    0.433120    0.434317     0.005394
PD1555   PD        0.221028    0.399804    0.435318     0.005394
PD1556   PD        0.224584    0.436394    0.401745     0.005394
PD1557   PD        0.255586    0.398832    0.400660     0.005394
PD1558   PD        0.255563    0.430441    0.433214     0.005394
PD1559   PD        0.288095    0.395994    0.435701     0.005394
PD1560   PD        0.290345    0.433178    0.401048     0.005394
PD1561   PD        0.323896    0.397048    0.400971     0.005394
PD1562   PD        0.324386    0.433789    0.436314     0.005394
PD1563   PD        0.355834    0.398193    0.437048     0.005394
PD1564   PD        0.353708    0.433036    0.400864     0.005394
PD1565   PD        0.388635    0.397076    0.400541     0.005394
AU1566   AU        0.391050    0.432998    0.433390     0.007504
AU1567   AU        0.422688    0.399127    0.435526     0.007504
AU1568   AU        0.423345    0.433798    0.400131     0.007504
AU1569   AU        0.455057    0.399627    0.400645     0.007504
PD1570   PD        0.455302    0.433643    0.435808     0.005394
AU1571   AU        0.489772    0.397973    0.435804     0.007504
AU1572   AU        0.487758    0.432033    0.402968     0.007504
PD1573   PD        0.522688    0.397651    0.400376     0.005394
AU1574   AU        0.521535    0.434913    0.436959     0.007504
PD1575   PD        0.552005    0.395795    0.436097     0.005394
AU1576   AU        0.555040    0.432759    0.403768     0.007504
PD1577   PD        0.587091    0.396795    0.402301     0.005394
PD1578   PD        0.585873    0.432732    0.435765     0.005394
PD1579   PD        0.620128    0.398821    0.434278     0.005394
PD1580   PD        0.623454    0.436468    0.404121     0.005394
AU1581   AU        0.653743    0.395089    0.400940     0.007504
PD1582   PD        0.652269    0.433102    0.436782     0.005394
AU1583   AU        0.687233    0.397381    0.435995     0.007504
PD1584   PD        0.689220    0.434425    0.403528     0.005394
AU1585   AU        0.721030    0.398025    0.403138     0.007504
AU1586   AU        0.722621    0.435019    0.437099     0.007504
PD1587   PD        0.755956    0.394961    0.435011     0.005394
AU1588   AU        0.754487    0.432139    0.403720     0.007504
PD1589   PD        0.787649    0.399091    0.403719     0.005394
PD1590   PD        0.787278    0.434787    0.436563     0.005394
AU1591   AU        0.819228    0.396897    0.436604     0.007504
AU1592   AU        0.819070    0.435539    0.404332     0.007504
PD1593   PD        0.889968    0.396344    0.437654     0.005394
PD1594   PD        0.000667    0.459991    0.488082     0.005394
AU1595   AU        0.058670    0.503704    0.435285     0.007504
AU1596   AU        0.090653    0.467708    0.435726     0.007504
AU1597   AU        0.091271    0.502796    0.401779     0.007504
PD1598   PD        0.125478    0.468935    0.402106     0.005394
AU1599   AU        0.123889    0.503323    0.433688     0.007504
PD1600   PD        0.156873    0.468177    0.434024     0.005394
AU1601   AU        0.159023    0.506639    0.400123     0.007504
PD1602   PD        0.187696    0.467705    0.400681     0.005394
AU1603   AU        0.189463    0.505121    0.436376     0.007504
PD1604   PD        0.224885    0.468090    0.434417     0.005394
AU1605   AU        0.223123    0.506895    0.400954     0.007504
AU1606   AU        0.255384    0.472019    0.400253     0.007504
AU1607   AU        0.256706    0.504233    0.436130     0.007504
PD1608   PD        0.287339    0.467589    0.435197     0.005394
AU1609   AU        0.289652    0.503894    0.403081     0.007504
AU1610   AU        0.322841    0.469755    0.402428     0.007504
PD1611   PD        0.320283    0.505602    0.435941     0.005394
AU1612   AU        0.354928    0.470521    0.435178     0.007504
AU1613   AU        0.355232    0.505099    0.402195     0.007504
PD1614   PD        0.386092    0.467956    0.399881     0.005394
PD1615   PD        0.391570    0.507614    0.435524     0.005394
PD1616   PD        0.423867    0.470908    0.433508     0.005394
PD1617   PD        0.420877    0.505338    0.400997     0.005394
AU1618   AU        0.455480    0.468668    0.401596     0.007504
AU1619   AU        0.455022    0.506741    0.435906     0.007504
PD1620   PD        0.488390    0.469024    0.433650     0.005394
AU1621   AU        0.488737    0.505741    0.402754     0.007504
AU1622   AU        0.521485    0.467038    0.401464     0.007504
AU1623   AU        0.523607    0.504841    0.436041     0.007504
AU1624   AU        0.553333    0.468276    0.436219     0.007504
AU1625   AU        0.552842    0.504092    0.403120     0.007504
PD1626   PD        0.585734    0.471605    0.403117     0.005394
PD1627   PD        0.587619    0.503047    0.432831     0.005394
AU1628   AU        0.619248    0.469532    0.436151     0.007504
AU1629   AU        0.620026    0.504229    0.400040     0.007504
AU1630   AU        0.654401    0.469342    0.401608     0.007504
AU1631   AU        0.652510    0.502336    0.435265     0.007504
PD1632   PD        0.685808    0.468476    0.433163     0.005394
PD1633   PD        0.684957    0.503768    0.403832     0.005394
PD1634   PD        0.720131    0.466884    0.400951     0.005394
AU1635   AU        0.721165    0.501928    0.435508     0.007504
PD1636   PD        0.752910    0.468769    0.434780     0.005394
AU1637   AU        0.752662    0.503193    0.402022     0.007504
PD1638   PD        0.785243    0.467120    0.404762     0.005394
AU1639   AU        0.786300    0.502302    0.436298     0.007504
PD1640   PD        0.817605    0.470770    0.435171     0.005394
PD1641   PD        0.818406    0.503198    0.402414     0.005394
AU1642   AU        0.852602    0.469527    0.403249     0.007504
PD1643   PD        0.848702    0.503075    0.436113     0.005394
AU1644   AU        0.090017    0.542161    0.433185     0.007504
AU1645   AU        0.089336    0.576504    0.401322     0.007504
AU1646   AU        0.123320    0.539699    0.399266     0.007504
AU1647   AU        0.124312    0.577029    0.432609     0.007504
AU1648   AU        0.157778    0.541103    0.433039     0.007504
PD1649   PD        0.158609    0.574906    0.403200     0.005394
AU1650   AU        0.190563    0.541711    0.400023     0.007504
AU1651   AU        0.190409    0.575794    0.435383     0.007504
AU1652   AU        0.222417    0.540533    0.433814     0.007504
AU1653   AU        0.225130    0.575640    0.401328     0.007504
AU1654   AU        0.256903    0.539220    0.402056     0.007504
AU1655   AU        0.254952    0.576417    0.435060     0.007504
AU1656   AU        0.289762    0.540932    0.435785     0.007504
AU1657   AU        0.289511    0.574504    0.402697     0.007504
PD1658   PD        0.319289    0.540114    0.401053     0.005394
AU1659   AU        0.322652    0.575199    0.435588     0.007504
PD1660   PD        0.355117    0.543213    0.432965     0.005394
AU1661   AU        0.355993    0.578491    0.400810     0.007504
AU1662   AU        0.389026    0.539465    0.401385     0.007504
AU1663   AU        0.390799    0.574106    0.433928     0.007504
PD1664   PD        0.424408    0.540511    0.438556     0.005394
PD1665   PD        0.423910    0.576544    0.400800     0.005394
PD1666   PD        0.455732    0.539935    0.403607     0.005394
AU1667   AU        0.455642    0.575339    0.432613     0.007504
AU1668   AU        0.489403    0.539868    0.435339     0.007504
AU1669   AU        0.487774    0.574870    0.402402     0.007504
AU1670   AU        0.522498    0.540798    0.403961     0.007504
AU1671   AU        0.522172    0.576313    0.436324     0.007504
AU1672   AU        0.557416    0.538930    0.437226     0.007504
AU1673   AU        0.554812    0.575741    0.403466     0.007504
PD1674   PD        0.587584    0.539897    0.401738     0.005394
AU1675   AU        0.588856    0.573890    0.435751     0.007504
AU1676   AU        0.620348    0.539191    0.434470     0.007504
AU1677   AU        0.619281    0.575716    0.401946     0.007504
AU1678   AU        0.652477    0.541018    0.400823     0.007504
AU1679   AU        0.652386    0.575058    0.436452     0.007504
PD1680   PD        0.685607    0.540953    0.433632     0.005394
PD1681   PD        0.686543    0.574534    0.403256     0.005394
AU1682   AU        0.719688    0.539647    0.403023     0.007504
PD1683   PD        0.720138    0.575404    0.435384     0.005394
AU1684   AU        0.752435    0.540607    0.437339     0.007504
PD1685   PD        0.755350    0.572655    0.401534     0.005394
AU1686   AU        0.787296    0.537248    0.403227     0.007504
PD1687   PD        0.789027    0.574680    0.434447     0.005394
AU1688   AU        0.819564    0.538124    0.435135     0.007504
AU1689   AU        0.821688    0.572509    0.403270     0.007504
PD1690   PD        0.091357    0.611887    0.438223     0.005394
PD1691   PD        0.090238    0.642754    0.402758     0.005394
AU1692   AU        0.122827    0.611977    0.401535     0.007504
AU1693   AU        0.124668    0.646976    0.436735     0.007504
AU1694   AU        0.156651    0.612048    0.434257     0.007504
AU1695   AU        0.158693    0.645606    0.403127     0.007504
AU1696   AU        0.191368    0.609653    0.401699     0.007504
PD1697   PD        0.189390    0.647915    0.436082     0.005394
AU1698   AU        0.222876    0.613152    0.434385     0.007504
PD1699   PD        0.225403    0.646333    0.401137     0.005394
AU1700   AU        0.256232    0.610693    0.401836     0.007504
AU1701   AU        0.255557    0.645725    0.433828     0.007504
AU1702   AU        0.290205    0.609497    0.433353     0.007504
AU1703   AU        0.289256    0.647146    0.402955     0.007504
PD1704   PD        0.321251    0.611975    0.399848     0.005394
AU1705   AU        0.321752    0.647065    0.435895     0.007504
AU1706   AU        0.355132    0.611913    0.432161     0.007504
AU1707   AU        0.355420    0.646571    0.399625     0.007504
AU1708   AU        0.389156    0.613546    0.402534     0.007504
PD1709   PD        0.388328    0.645564    0.437279     0.005394
PD1710   PD        0.419305    0.612959    0.436197     0.005394
AU1711   AU        0.421513    0.649083    0.401310     0.007504
AU1712   AU        0.455191    0.611817    0.401048     0.007504
PD1713   PD        0.451159    0.645420    0.435005     0.005394
PD1714   PD        0.489295    0.612456    0.434379     0.005394
PD1715   PD        0.489457    0.646464    0.403185     0.005394
PD1716   PD        0.520953    0.611376    0.402592     0.005394
PD1717   PD        0.522912    0.648505    0.437868     0.005394
PD1718   PD        0.554693    0.611466    0.435256     0.005394
PD1719   PD        0.553946    0.645560    0.404254     0.005394
AU1720   AU        0.589029    0.613342    0.404586     0.007504
AU1721   AU        0.589267    0.647501    0.436724     0.007504
AU1722   AU        0.621035    0.611581    0.437157     0.007504
AU1723   AU        0.621386    0.646363    0.404154     0.007504
AU1724   AU        0.653116    0.610854    0.402392     0.007504
AU1725   AU        0.653695    0.645931    0.436544     0.007504
PD1726   PD        0.685006    0.610669    0.434541     0.005394
AU1727   AU        0.685829    0.646523    0.402772     0.007504
PD1728   PD        0.721547    0.610630    0.400607     0.005394
PD1729   PD        0.719408    0.645212    0.433906     0.005394
PD1730   PD        0.752214    0.610391    0.437180     0.005394
AU1731   AU        0.751638    0.646137    0.401394     0.007504
PD1732   PD        0.784982    0.608241    0.402445     0.005394
PD1733   PD        0.785685    0.642566    0.436230     0.005394
PD1734   PD        0.821021    0.611398    0.432952     0.005394
PD1735   PD        0.883041    0.640993    0.417684     0.005394
PD1736   PD        0.124589    0.682543    0.404062     0.005394
PD1737   PD        0.124164    0.714528    0.437001     0.005394
AU1738   AU        0.157431    0.683262    0.434861     0.007504
AU1739   AU        0.154748    0.717360    0.399937     0.007504
PD1740   PD        0.190142    0.683090    0.400025     0.005394
PD1741   PD        0.190934    0.716751    0.436208     0.005394
PD1742   PD        0.222622    0.680595    0.433425     0.005394
PD1743   PD        0.220541    0.716423    0.400666     0.005394
PD1744   PD        0.257443    0.682462    0.401743     0.005394
PD1745   PD        0.252697    0.716735    0.437077     0.005394
AU1746   AU        0.290032    0.682782    0.435496     0.007504
PD1747   PD        0.289378    0.715311    0.401813     0.005394
AU1748   AU        0.322345    0.682667    0.402569     0.007504
PD1749   PD        0.324732    0.714006    0.438048     0.005394
PD1750   PD        0.357144    0.682606    0.433902     0.005394
PD1751   PD        0.356563    0.716579    0.402181     0.005394
AU1752   AU        0.389290    0.682366    0.401662     0.007504
AU1753   AU        0.388467    0.719933    0.435550     0.007504
PD1754   PD        0.421630    0.685474    0.435687     0.005394
AU1755   AU        0.421384    0.718377    0.402691     0.007504
AU1756   AU        0.453806    0.681667    0.401470     0.007504
AU1757   AU        0.455826    0.718803    0.435748     0.007504
PD1758   PD        0.489287    0.683034    0.433746     0.005394
AU1759   AU        0.489327    0.717775    0.402934     0.007504
AU1760   AU        0.521298    0.682400    0.402234     0.007504
AU1761   AU        0.523605    0.715900    0.435885     0.007504
AU1762   AU        0.556323    0.681645    0.435643     0.007504
AU1763   AU        0.557203    0.716485    0.402012     0.007504
AU1764   AU        0.589435    0.680818    0.401721     0.007504
AU1765   AU        0.588964    0.716551    0.434674     0.007504
AU1766   AU        0.620558    0.681696    0.437876     0.007504
AU1767   AU        0.621566    0.714960    0.402914     0.007504
PD1768   PD        0.654809    0.681970    0.405603     0.005394
AU1769   AU        0.657248    0.718494    0.436857     0.007504
AU1770   AU        0.687890    0.681533    0.435659     0.007504
PD1771   PD        0.688232    0.717202    0.401051     0.005394
AU1772   AU        0.719495    0.683113    0.401973     0.007504
AU1773   AU        0.719294    0.717749    0.437477     0.007504
AU1774   AU        0.751455    0.682269    0.435226     0.007504
PD1775   PD        0.752162    0.718952    0.403373     0.005394
AU1776   AU        0.787460    0.679062    0.403929     0.007504
PD1777   PD        0.786999    0.717782    0.438587     0.005394
PD1778   PD        0.156615    0.750033    0.434637     0.005394
PD1779   PD        0.191397    0.750340    0.402665     0.005394
PD1780   PD        0.183042    0.789743    0.442916     0.005394
PD1781   PD        0.221739    0.753087    0.437333     0.005394
PD1782   PD        0.222026    0.791094    0.402325     0.005394
PD1783   PD        0.257640    0.750207    0.401335     0.005394
AU1784   AU        0.258491    0.787415    0.437661     0.007504
PD1785   PD        0.288887    0.748185    0.432899     0.005394
PD1786   PD        0.290567    0.786124    0.404272     0.005394
AU1787   AU        0.320885    0.750069    0.401762     0.007504
PD1788   PD        0.321354    0.787743    0.436433     0.005394
AU1789   AU        0.354245    0.753960    0.434841     0.007504
PD1790   PD        0.352918    0.785913    0.403222     0.005394
PD1791   PD        0.389291    0.753035    0.402707     0.005394
AU1792   AU        0.387292    0.787036    0.435414     0.007504
PD1793   PD        0.423000    0.752104    0.436587     0.005394
PD1794   PD        0.418194    0.787510    0.401369     0.005394
AU1795   AU        0.455766    0.751646    0.400286     0.007504
PD1796   PD        0.456558    0.787889    0.435078     0.005394
PD1797   PD        0.488672    0.752225    0.435562     0.005394
PD1798   PD        0.488131    0.785920    0.400684     0.005394
AU1799   AU        0.522540    0.752344    0.404183     0.007504
AU1800   AU        0.522505    0.787618    0.436981     0.007504
AU1801   AU        0.555416    0.752163    0.436399     0.007504
AU1802   AU        0.554438    0.786946    0.404083     0.007504
PD1803   PD        0.588468    0.750134    0.404222     0.005394
AU1804   AU        0.586838    0.788321    0.434776     0.007504
PD1805   PD        0.620419    0.751750    0.437296     0.005394
AU1806   AU        0.621280    0.786101    0.405306     0.007504
AU1807   AU        0.654835    0.752703    0.404501     0.007504
PD1808   PD        0.652748    0.788076    0.438615     0.005394
AU1809   AU        0.688367    0.753003    0.434984     0.007504
PD1810   PD        0.684648    0.787987    0.404834     0.005394
AU1811   AU        0.720319    0.753772    0.400377     0.007504
PD1812   PD        0.717092    0.786468    0.434579     0.005394
PD1813   PD        0.752443    0.754653    0.436112     0.005394
PD1814   PD        0.227701    0.823717    0.434789     0.005394
AU1815   AU        0.257762    0.824830    0.403154     0.007504
AU1816   AU        0.289744    0.823068    0.437220     0.007504
PD1817   PD        0.287937    0.893891    0.433572     0.005394
PD1818   PD        0.320341    0.824014    0.403016     0.005394
AU1819   AU        0.321245    0.859027    0.434695     0.007504
PD1820   PD        0.353811    0.821235    0.435176     0.005394
AU1821   AU        0.354710    0.858937    0.400665     0.007504
AU1822   AU        0.387423    0.822533    0.401454     0.007504
AU1823   AU        0.388460    0.857891    0.434203     0.007504
PD1824   PD        0.420719    0.824028    0.434785     0.005394
AU1825   AU        0.422008    0.857913    0.403158     0.007504
AU1826   AU        0.456904    0.824211    0.403308     0.007504
AU1827   AU        0.454227    0.859604    0.436644     0.007504
PD1828   PD        0.489936    0.823332    0.433604     0.005394
AU1829   AU        0.488826    0.858787    0.403054     0.007504
AU1830   AU        0.521296    0.822483    0.402478     0.007504
AU1831   AU        0.522052    0.860191    0.434506     0.007504
AU1832   AU        0.554335    0.824059    0.435757     0.007504
AU1833   AU        0.553054    0.860264    0.402329     0.007504
AU1834   AU        0.589363    0.822144    0.403002     0.007504
AU1835   AU        0.586255    0.857470    0.435134     0.007504
PD1836   PD        0.618634    0.823144    0.435329     0.005394
PD1837   PD        0.618538    0.857874    0.402881     0.005394
AU1838   AU        0.651235    0.827047    0.404583     0.007504
AU1839   AU        0.686319    0.821644    0.436548     0.007504
AU1840   AU        0.419968    0.891919    0.435904     0.007504
AU1841   AU        0.452050    0.895710    0.401725     0.007504
AU1842   AU        0.485103    0.896313    0.434423     0.007504
AU1843   AU        0.288577    0.079006    0.469621     0.007504
PD1844   PD        0.324127    0.074480    0.502074     0.005394
AU1845   AU        0.357945    0.075583    0.467584     0.007504
PD1846   PD        0.351966    0.000714    0.468868     0.005394
PD1847   PD        0.390389    0.074052    0.500210     0.005394
PD1848   PD        0.389409    0.038840    0.537308     0.005394
PD1849   PD        0.423442    0.077045    0.467388     0.005394
PD1850   PD        0.454871    0.040054    0.467890     0.005394
PD1851   PD        0.454733    0.077017    0.501596     0.005394
PD1852   PD        0.488518    0.041366    0.501075     0.005394
PD1853   PD        0.491717    0.076062    0.471204     0.005394
PD1854   PD        0.521607    0.039226    0.467231     0.005394
AU1855   AU        0.522096    0.075802    0.499923     0.007504
AU1856   AU        0.554310    0.074384    0.467414     0.007504
PD1857   PD        0.588160    0.077209    0.502297     0.005394
AU1858   AU        0.622090    0.077015    0.467239     0.007504
PD1859   PD        0.189316    0.151975    0.501687     0.005394
PD1860   PD        0.216957    0.115093    0.499107     0.005394
AU1861   AU        0.222622    0.147805    0.466935     0.007504
PD1862   PD        0.253203    0.111468    0.468585     0.005394
AU1863   AU        0.254708    0.144836    0.503919     0.007504
PD1864   PD        0.292047    0.110308    0.503210     0.005394
PD1865   PD        0.287488    0.145655    0.471255     0.005394
AU1866   AU        0.322670    0.111979    0.468184     0.007504
AU1867   AU        0.321572    0.147096    0.500995     0.007504
PD1868   PD        0.354569    0.110486    0.501324     0.005394
AU1869   AU        0.354071    0.146251    0.468280     0.007504
AU1870   AU        0.387985    0.112151    0.467778     0.007504
AU1871   AU        0.388507    0.146338    0.499505     0.007504
AU1872   AU        0.423789    0.111083    0.500863     0.007504
AU1873   AU        0.419274    0.146251    0.468172     0.007504
PD1874   PD        0.453840    0.112340    0.466380     0.005394
AU1875   AU        0.455355    0.147062    0.499353     0.007504
AU1876   AU        0.488870    0.113716    0.501334     0.007504
PD1877   PD        0.491749    0.148073    0.467321     0.005394
AU1878   AU        0.523208    0.111852    0.467673     0.007504
PD1879   PD        0.523969    0.145009    0.501726     0.005394
AU1880   AU        0.556441    0.110480    0.501180     0.007504
AU1881   AU        0.558494    0.146573    0.469152     0.007504
AU1882   AU        0.587309    0.108441    0.468373     0.007504
PD1883   PD        0.589673    0.146334    0.499871     0.005394
AU1884   AU        0.622250    0.111883    0.501634     0.007504
AU1885   AU        0.621166    0.147242    0.469920     0.007504
AU1886   AU        0.653824    0.112517    0.467833     0.007504
PD1887   PD        0.657345    0.145308    0.500521     0.005394
AU1888   AU        0.686441    0.115038    0.500462     0.007504
AU1889   AU        0.688549    0.145442    0.465859     0.007504
PD1890   PD        0.721919    0.147833    0.501361     0.005394
PD1891   PD        0.122835    0.219395    0.497460     0.005394
PD1892   PD        0.156875    0.182571    0.499602     0.005394
PD1893   PD        0.156745    0.219170    0.468176     0.005394
PD1894   PD        0.188948    0.182628    0.467805     0.005394
PD1895   PD        0.189595    0.217204    0.498756     0.005394
PD1896   PD        0.222363    0.181695    0.500623     0.005394
AU1897   AU        0.223507    0.218761    0.466690     0.007504
PD1898   PD        0.254603    0.183034    0.468752     0.005394
PD1899   PD        0.254597    0.217146    0.500468     0.005394
AU1900   AU        0.289834    0.180646    0.503544     0.007504
AU1901   AU        0.286638    0.215436    0.468308     0.007504
PD1902   PD        0.322103    0.183228    0.468397     0.005394
AU1903   AU        0.323336    0.217677    0.503798     0.007504
PD1904   PD        0.354328    0.184967    0.504236     0.005394
PD1905   PD        0.353406    0.216989    0.468566     0.005394
PD1906   PD        0.388470    0.181309    0.466794     0.005394
AU1907   AU        0.388456    0.219011    0.501188     0.007504
AU1908   AU        0.422083    0.183208    0.501936     0.007504
AU1909   AU        0.420778    0.218935    0.467377     0.007504
PD1910   PD        0.454151    0.181195    0.467328     0.005394
AU1911   AU        0.456613    0.218031    0.501666     0.007504
AU1912   AU        0.488519    0.183111    0.500587     0.007504
AU1913   AU        0.490385    0.219503    0.469511     0.007504
PD1914   PD        0.521270    0.184743    0.466325     0.005394
PD1915   PD        0.521433    0.218775    0.501589     0.005394
PD1916   PD        0.555450    0.179641    0.500653     0.005394
PD1917   PD        0.557728    0.218235    0.470589     0.005394
AU1918   AU        0.588629    0.185527    0.469490     0.007504
AU1919   AU        0.589703    0.221355    0.501992     0.007504
AU1920   AU        0.621045    0.183031    0.499923     0.007504
AU1921   AU        0.622316    0.218886    0.468744     0.007504
PD1922   PD        0.655071    0.181751    0.470074     0.005394
AU1923   AU        0.653974    0.216884    0.500340     0.007504
PD1924   PD        0.688835    0.181759    0.498025     0.005394
AU1925   AU        0.688029    0.218422    0.469979     0.007504
AU1926   AU        0.720949    0.183270    0.469789     0.007504
PD1927   PD        0.720950    0.220410    0.502776     0.005394
AU1928   AU        0.753422    0.185400    0.501366     0.007504
AU1929   AU        0.752678    0.218983    0.467868     0.007504
PD1930   PD        0.786273    0.221269    0.502267     0.005394
PD1931   PD        0.091241    0.288974    0.466803     0.005394
PD1932   PD        0.123143    0.255768    0.466766     0.005394
AU1933   AU        0.125281    0.289490    0.503682     0.007504
AU1934   AU        0.155762    0.253918    0.499821     0.007504
PD1935   PD        0.155482    0.291422    0.466417     0.005394
PD1936   PD        0.190247    0.258892    0.466614     0.005394
PD1937   PD        0.187382    0.290747    0.498629     0.005394
PD1938   PD        0.222095    0.253712    0.499440     0.005394
PD1939   PD        0.220201    0.290233    0.468034     0.005394
PD1940   PD        0.254301    0.253834    0.466282     0.005394
AU1941   AU        0.256436    0.290979    0.499967     0.007504
PD1942   PD        0.289168    0.251919    0.500015     0.005394
AU1943   AU        0.288546    0.289582    0.468216     0.007504
AU1944   AU        0.323483    0.253788    0.467786     0.007504
AU1945   AU        0.324110    0.290206    0.500176     0.007504
PD1946   PD        0.356765    0.253837    0.503086     0.005394
PD1947   PD        0.356587    0.290868    0.468579     0.005394
AU1948   AU        0.389677    0.255398    0.467715     0.007504
PD1949   PD        0.391685    0.288680    0.500968     0.005394
AU1950   AU        0.423795    0.252591    0.502401     0.007504
AU1951   AU        0.422399    0.290091    0.470654     0.007504
AU1952   AU        0.456474    0.252751    0.467526     0.007504
AU1953   AU        0.456584    0.288556    0.502538     0.007504
AU1954   AU        0.487837    0.254189    0.502162     0.007504
AU1955   AU        0.487570    0.290606    0.470169     0.007504
AU1956   AU        0.522414    0.255357    0.468951     0.007504
PD1957   PD        0.520491    0.291083    0.503692     0.005394
PD1958   PD        0.553672    0.255874    0.502974     0.005394
AU1959   AU        0.555480    0.288524    0.469483     0.007504
PD1960   PD        0.589655    0.255565    0.470902     0.005394
PD1961   PD        0.587423    0.288925    0.501357     0.005394
AU1962   AU        0.624594    0.255141    0.501635     0.007504
AU1963   AU        0.621619    0.289165    0.469511     0.007504
AU1964   AU        0.655525    0.251862    0.468630     0.007504
AU1965   AU        0.655412    0.291268    0.501047     0.007504
AU1966   AU        0.688985    0.255259    0.502279     0.007504
AU1967   AU        0.689900    0.290560    0.469972     0.007504
AU1968   AU        0.720893    0.254074    0.469198     0.007504
AU1969   AU        0.720066    0.291274    0.505069     0.007504
AU1970   AU        0.753227    0.256124    0.501672     0.007504
PD1971   PD        0.751145    0.290129    0.467043     0.005394
PD1972   PD        0.786452    0.254153    0.468639     0.005394
PD1973   PD        0.789643    0.289884    0.502304     0.005394
PD1974   PD        0.820182    0.251515    0.437024     0.005394
PD1975   PD        0.091110    0.326005    0.500311     0.005394
AU1976   AU        0.090558    0.360825    0.468063     0.007504
AU1977   AU        0.126032    0.327723    0.468298     0.007504
PD1978   PD        0.121794    0.362644    0.500852     0.005394
PD1979   PD        0.155544    0.325608    0.500419     0.005394
AU1980   AU        0.154959    0.357797    0.468391     0.007504
AU1981   AU        0.188879    0.326578    0.466724     0.007504
AU1982   AU        0.190002    0.360471    0.500892     0.007504
PD1983   PD        0.220698    0.326148    0.501359     0.005394
AU1984   AU        0.222761    0.360490    0.466965     0.007504
AU1985   AU        0.256033    0.325583    0.468135     0.007504
AU1986   AU        0.255386    0.362193    0.500540     0.007504
AU1987   AU        0.290179    0.326222    0.499293     0.007504
AU1988   AU        0.288726    0.360967    0.469108     0.007504
PD1989   PD        0.322454    0.326681    0.468491     0.005394
AU1990   AU        0.321535    0.363000    0.501946     0.007504
PD1991   PD        0.354093    0.326905    0.499949     0.005394
PD1992   PD        0.354866    0.361279    0.469463     0.005394
PD1993   PD        0.389445    0.326509    0.468858     0.005394
PD1994   PD        0.393194    0.360049    0.501901     0.005394
PD1995   PD        0.422072    0.329406    0.499215     0.005394
AU1996   AU        0.424709    0.363102    0.468797     0.007504
PD1997   PD        0.457191    0.325201    0.468977     0.005394
PD1998   PD        0.455504    0.361495    0.502349     0.005394
PD1999   PD        0.490010    0.326294    0.501009     0.005394
AU2000   AU        0.486644    0.361527    0.469964     0.007504
PD2001   PD        0.522668    0.322360    0.469900     0.005394
PD2002   PD        0.522141    0.362496    0.501942     0.005394
PD2003   PD        0.555560    0.325362    0.502448     0.005394
PD2004   PD        0.554260    0.360193    0.469874     0.005394
AU2005   AU        0.589918    0.325717    0.467603     0.007504
AU2006   AU        0.587879    0.361964    0.501613     0.007504
PD2007   PD        0.623759    0.328841    0.501303     0.005394
PD2008   PD        0.622375    0.361551    0.468582     0.005394
PD2009   PD        0.655124    0.326877    0.469266     0.005394
PD2010   PD        0.654225    0.364583    0.501215     0.005394
PD2011   PD        0.686893    0.325173    0.502319     0.005394
PD2012   PD        0.686820    0.360585    0.469386     0.005394
PD2013   PD        0.717451    0.324157    0.469656     0.005394
PD2014   PD        0.719742    0.361386    0.501091     0.005394
PD2015   PD        0.754549    0.324367    0.502228     0.005394
PD2016   PD        0.754451    0.360390    0.467976     0.005394
AU2017   AU        0.786131    0.324443    0.468960     0.007504
AU2018   AU        0.786185    0.361314    0.503575     0.007504
PD2019   PD        0.819993    0.326135    0.502828     0.005394
AU2020   AU        0.820774    0.359533    0.468834     0.007504
PD2021   PD        0.018872    0.397834    0.438095     0.005394
PD2022   PD        0.059665    0.434419    0.500211     0.005394
PD2023   PD        0.090807    0.398465    0.501690     0.005394
AU2024   AU        0.089748    0.431504    0.464602     0.007504
AU2025   AU        0.122170    0.395353    0.465607     0.007504
PD2026   PD        0.123735    0.432541    0.501710     0.005394
PD2027   PD        0.155446    0.396735    0.498312     0.005394
AU2028   AU        0.155521    0.432751    0.467469     0.007504
PD2029   PD        0.190318    0.397310    0.470200     0.005394
PD2030   PD        0.188968    0.435611    0.503796     0.005394
AU2031   AU        0.221660    0.397063    0.503099     0.007504
PD2032   PD        0.220954    0.432059    0.471893     0.005394
PD2033   PD        0.255585    0.396844    0.470312     0.005394
PD2034   PD        0.255747    0.432506    0.501506     0.005394
PD2035   PD        0.289192    0.397302    0.502559     0.005394
PD2036   PD        0.290410    0.434744    0.469753     0.005394
PD2037   PD        0.321843    0.396346    0.468921     0.005394
AU2038   AU        0.321716    0.433411    0.503338     0.007504
AU2039   AU        0.356352    0.397415    0.499525     0.007504
AU2040   AU        0.355618    0.433834    0.468492     0.007504
PD2041   PD        0.389748    0.398273    0.467382     0.005394
AU2042   AU        0.389066    0.434728    0.502625     0.007504
AU2043   AU        0.420730    0.399049    0.501314     0.007504
AU2044   AU        0.422120    0.436034    0.467701     0.007504
AU2045   AU        0.455806    0.399575    0.467397     0.007504
AU2046   AU        0.455628    0.431922    0.500837     0.007504
PD2047   PD        0.487625    0.395559    0.504515     0.005394
PD2048   PD        0.489289    0.433043    0.470842     0.005394
AU2049   AU        0.522468    0.395902    0.470010     0.007504
PD2050   PD        0.524528    0.433460    0.501121     0.005394
PD2051   PD        0.554898    0.395562    0.502521     0.005394
AU2052   AU        0.554641    0.433136    0.470828     0.007504
AU2053   AU        0.587823    0.397869    0.469196     0.007504
AU2054   AU        0.588627    0.432297    0.500270     0.007504
AU2055   AU        0.620448    0.396468    0.503259     0.007504
PD2056   PD        0.620299    0.434319    0.470384     0.005394
PD2057   PD        0.655278    0.396510    0.470743     0.005394
AU2058   AU        0.653180    0.433106    0.503428     0.007504
AU2059   AU        0.688402    0.398414    0.502158     0.007504
PD2060   PD        0.686043    0.432794    0.466897     0.005394
PD2061   PD        0.721986    0.394958    0.469093     0.005394
AU2062   AU        0.720775    0.432798    0.503793     0.007504
AU2063   AU        0.753214    0.395938    0.501869     0.007504
AU2064   AU        0.755289    0.431378    0.470384     0.007504
AU2065   AU        0.787609    0.394947    0.468994     0.007504
AU2066   AU        0.788632    0.431812    0.503398     0.007504
PD2067   PD        0.821450    0.396817    0.499788     0.005394
PD2068   PD        0.819578    0.435601    0.467910     0.005394
PD2069   PD        0.889843    0.367552    0.464650     0.005394
PD2070   PD        0.851814    0.431655    0.502419     0.005394
PD2071   PD        0.057994    0.468616    0.467712     0.005394
PD2072   PD        0.058526    0.503645    0.501951     0.005394
AU2073   AU        0.091552    0.466701    0.501958     0.007504
PD2074   PD        0.091723    0.505798    0.469124     0.005394
PD2075   PD        0.122186    0.470266    0.468224     0.005394
PD2076   PD        0.123901    0.505060    0.499818     0.005394
AU2077   AU        0.156545    0.469988    0.500528     0.007504
AU2078   AU        0.156580    0.506065    0.468119     0.007504
AU2079   AU        0.187840    0.467425    0.467406     0.007504
AU2080   AU        0.187433    0.506538    0.500805     0.007504
PD2081   PD        0.224378    0.470993    0.499820     0.005394
PD2082   PD        0.222650    0.505440    0.468407     0.005394
PD2083   PD        0.256556    0.468086    0.467988     0.005394
PD2084   PD        0.256193    0.505161    0.499884     0.005394
AU2085   AU        0.287647    0.470652    0.502396     0.007504
AU2086   AU        0.290354    0.504999    0.468387     0.007504
PD2087   PD        0.322503    0.470904    0.471442     0.005394
AU2088   AU        0.321399    0.506594    0.502813     0.007504
PD2089   PD        0.354495    0.469171    0.505287     0.005394
AU2090   AU        0.355751    0.505410    0.469710     0.007504
AU2091   AU        0.388706    0.471000    0.468097     0.007504
PD2092   PD        0.388995    0.506659    0.503121     0.005394
PD2093   PD        0.422452    0.469575    0.501423     0.005394
AU2094   AU        0.421214    0.505957    0.468614     0.007504
PD2095   PD        0.454898    0.470343    0.465723     0.005394
AU2096   AU        0.454614    0.504039    0.501425     0.007504
AU2097   AU        0.487741    0.468685    0.501154     0.007504
AU2098   AU        0.488034    0.502480    0.467267     0.007504
PD2099   PD        0.522954    0.468844    0.468213     0.005394
AU2100   AU        0.520141    0.502200    0.500730     0.007504
PD2101   PD        0.555298    0.469957    0.503728     0.005394
AU2102   AU        0.556886    0.504298    0.468796     0.007504
AU2103   AU        0.588019    0.469067    0.469646     0.007504
AU2104   AU        0.587864    0.504817    0.502313     0.007504
AU2105   AU        0.620849    0.470074    0.501689     0.007504
AU2106   AU        0.620194    0.504900    0.469036     0.007504
AU2107   AU        0.655466    0.467562    0.469682     0.007504
PD2108   PD        0.655844    0.505191    0.502426     0.005394
AU2109   AU        0.687210    0.468988    0.503420     0.007504
AU2110   AU        0.685840    0.505552    0.467756     0.007504
PD2111   PD        0.722008    0.468457    0.469627     0.005394
AU2112   AU        0.721465    0.501519    0.502687     0.007504
AU2113   AU        0.754190    0.466755    0.503901     0.007504
PD2114   PD        0.754525    0.503510    0.470150     0.005394
PD2115   PD        0.785830    0.469053    0.470256     0.005394
AU2116   AU        0.786842    0.502059    0.501774     0.007504
AU2117   AU        0.821346    0.467582    0.501976     0.007504
PD2118   PD        0.818392    0.504265    0.470145     0.005394
AU2119   AU        0.852760    0.469270    0.469252     0.007504
PD2120   PD        0.855056    0.504701    0.499595     0.005394
PD2121   PD        0.057336    0.538800    0.466238     0.005394
PD2122   PD        0.094015    0.541526    0.500357     0.005394
PD2123   PD        0.087660    0.573811    0.468182     0.005394
AU2124   AU        0.122806    0.543148    0.466245     0.007504
PD2125   PD        0.126247    0.576466    0.500566     0.005394
PD2126   PD        0.155863    0.540563    0.501459     0.005394
PD2127   PD        0.156513    0.576500    0.468094     0.005394
AU2128   AU        0.189888    0.540706    0.466868     0.007504
AU2129   AU        0.190511    0.576458    0.501015     0.007504
AU2130   AU        0.222956    0.538532    0.500517     0.007504
PD2131   PD        0.224530    0.575177    0.467529     0.005394
PD2132   PD        0.256453    0.541119    0.467158     0.005394
PD2133   PD        0.256647    0.575749    0.499669     0.005394
AU2134   AU        0.289385    0.541200    0.501381     0.007504
AU2135   AU        0.287365    0.577286    0.466738     0.007504
AU2136   AU        0.323105    0.538318    0.470163     0.007504
PD2137   PD        0.322261    0.576706    0.500518     0.005394
AU2138   AU        0.355160    0.540679    0.502189     0.007504
AU2139   AU        0.356515    0.574763    0.467034     0.007504
AU2140   AU        0.388637    0.540576    0.469396     0.007504
AU2141   AU        0.389577    0.576127    0.503701     0.007504
AU2142   AU        0.422847    0.541224    0.500831     0.007504
AU2143   AU        0.423680    0.576218    0.468862     0.007504
PD2144   PD        0.457172    0.541828    0.470275     0.005394
PD2145   PD        0.457683    0.576977    0.504288     0.005394
PD2146   PD        0.489132    0.542550    0.501658     0.005394
PD2147   PD        0.486111    0.576051    0.467396     0.005394
AU2148   AU        0.520173    0.539182    0.467845     0.007504
PD2149   PD        0.522353    0.575945    0.499738     0.005394
AU2150   AU        0.552402    0.539541    0.501179     0.007504
AU2151   AU        0.556441    0.574353    0.466707     0.007504
AU2152   AU        0.589429    0.539428    0.471847     0.007504
AU2153   AU        0.588402    0.575355    0.502480     0.007504
AU2154   AU        0.621837    0.538420    0.501893     0.007504
AU2155   AU        0.620396    0.574746    0.470100     0.007504
PD2156   PD        0.656321    0.539762    0.470314     0.005394
AU2157   AU        0.653502    0.573764    0.502387     0.007504
AU2158   AU        0.690103    0.538465    0.502499     0.007504
AU2159   AU        0.686368    0.573534    0.468950     0.007504
PD2160   PD        0.719412    0.539915    0.467981     0.005394
AU2161   AU        0.720783    0.574593    0.500632     0.007504
PD2162   PD        0.753352    0.539002    0.503336     0.005394
PD2163   PD        0.753029    0.576925    0.470349     0.005394
AU2164   AU        0.784045    0.541243    0.468514     0.007504
PD2165   PD        0.784499    0.574128    0.503417     0.005394
PD2166   PD        0.818534    0.539565    0.504306     0.005394
PD2167   PD        0.821652    0.571109    0.467884     0.005394
PD2168   PD        0.863845    0.566895    0.441621     0.005394
AU2169   AU        0.092329    0.611972    0.500310     0.007504
PD2170   PD        0.055045    0.647674    0.437362     0.005394
AU2171   AU        0.123871    0.610878    0.468145     0.007504
AU2172   AU        0.126727    0.646215    0.504524     0.007504
AU2173   AU        0.157074    0.611716    0.501238     0.007504
AU2174   AU        0.157757    0.645286    0.468846     0.007504
AU2175   AU        0.189800    0.611286    0.467639     0.007504
AU2176   AU        0.189572    0.646095    0.503375     0.007504
AU2177   AU        0.224268    0.611575    0.502126     0.007504
PD2178   PD        0.224157    0.643098    0.469327     0.005394
PD2179   PD        0.256483    0.610027    0.469890     0.005394
AU2180   AU        0.257672    0.645047    0.501444     0.007504
AU2181   AU        0.291049    0.609778    0.501692     0.007504
PD2182   PD        0.289301    0.645570    0.466758     0.005394
AU2183   AU        0.321180    0.610576    0.467987     0.007504
PD2184   PD        0.321168    0.645354    0.499913     0.005394
AU2185   AU        0.354205    0.609194    0.499984     0.007504
AU2186   AU        0.353798    0.646046    0.468758     0.007504
AU2187   AU        0.387978    0.609860    0.470101     0.007504
AU2188   AU        0.387703    0.645584    0.501496     0.007504
AU2189   AU        0.421681    0.611052    0.503115     0.007504
AU2190   AU        0.419988    0.646659    0.469801     0.007504
AU2191   AU        0.454900    0.610880    0.467879     0.007504
AU2192   AU        0.456647    0.647981    0.502319     0.007504
AU2193   AU        0.488847    0.612648    0.502421     0.007504
PD2194   PD        0.487504    0.647270    0.468378     0.005394
PD2195   PD        0.521303    0.612660    0.467944     0.005394
AU2196   AU        0.520658    0.646825    0.501914     0.007504
AU2197   AU        0.555090    0.610760    0.500875     0.007504
PD2198   PD        0.554715    0.646502    0.467692     0.005394
PD2199   PD        0.588160    0.611797    0.468670     0.005394
AU2200   AU        0.589506    0.645979    0.501780     0.007504
AU2201   AU        0.620530    0.609897    0.501526     0.007504
AU2202   AU        0.621452    0.647027    0.470047     0.007504
AU2203   AU        0.653297    0.610091    0.468623     0.007504
PD2204   PD        0.654735    0.646248    0.500681     0.005394
PD2205   PD        0.687314    0.607219    0.502334     0.005394
PD2206   PD        0.688711    0.645685    0.470298     0.005394
PD2207   PD        0.720120    0.609072    0.468631     0.005394
PD2208   PD        0.721212    0.642983    0.501410     0.005394
AU2209   AU        0.754275    0.610136    0.502527     0.007504
AU2210   AU        0.755721    0.643102    0.469671     0.007504
AU2211   AU        0.789648    0.608304    0.471503     0.007504
AU2212   AU        0.789156    0.644377    0.502489     0.007504
PD2213   PD        0.821920    0.682192    0.496116     0.005394
PD2214   PD        0.818686    0.644085    0.465865     0.005394
AU2215   AU        0.122837    0.679116    0.470763     0.007504
PD2216   PD        0.089098    0.752466    0.502333     0.005394
AU2217   AU        0.157353    0.680448    0.503652     0.007504
AU2218   AU        0.156614    0.715193    0.469882     0.007504
AU2219   AU        0.187812    0.681782    0.469319     0.007504
AU2220   AU        0.189636    0.717223    0.502623     0.007504
PD2221   PD        0.223507    0.681663    0.506211     0.005394
AU2222   AU        0.221146    0.717202    0.469227     0.007504
PD2223   PD        0.253428    0.679948    0.466519     0.005394
AU2224   AU        0.253005    0.717119    0.500229     0.007504
AU2225   AU        0.287561    0.681440    0.501501     0.007504
PD2226   PD        0.288629    0.716245    0.468316     0.005394
AU2227   AU        0.319894    0.680868    0.468457     0.007504
AU2228   AU        0.321393    0.715010    0.503130     0.007504
AU2229   AU        0.354631    0.680977    0.502270     0.007504
PD2230   PD        0.353181    0.717211    0.467540     0.005394
AU2231   AU        0.389399    0.682415    0.468536     0.007504
PD2232   PD        0.388900    0.718029    0.503380     0.005394
PD2233   PD        0.420261    0.681056    0.503083     0.005394
PD2234   PD        0.421857    0.716178    0.470488     0.005394
AU2235   AU        0.452346    0.680846    0.471137     0.007504
AU2236   AU        0.454799    0.717880    0.500957     0.007504
AU2237   AU        0.489083    0.681784    0.502519     0.007504
PD2238   PD        0.489149    0.718081    0.467726     0.005394
PD2239   PD        0.522030    0.682546    0.468674     0.005394
PD2240   PD        0.519942    0.719472    0.503617     0.005394
AU2241   AU        0.556103    0.682657    0.501264     0.007504
AU2242   AU        0.556410    0.716068    0.469161     0.007504
AU2243   AU        0.587687    0.680889    0.469019     0.007504
AU2244   AU        0.588978    0.717123    0.502653     0.007504
PD2245   PD        0.621796    0.679787    0.503803     0.005394
AU2246   AU        0.623166    0.717612    0.469056     0.007504
AU2247   AU        0.653712    0.682966    0.469169     0.007504
AU2248   AU        0.653300    0.714795    0.503296     0.007504
AU2249   AU        0.688731    0.683436    0.502596     0.007504
AU2250   AU        0.687956    0.718713    0.470620     0.007504
AU2251   AU        0.720527    0.679748    0.469140     0.007504
PD2252   PD        0.722373    0.718635    0.503264     0.005394
PD2253   PD        0.752322    0.680150    0.500251     0.005394
AU2254   AU        0.751048    0.716749    0.469273     0.007504
PD2255   PD        0.783637    0.680948    0.466920     0.005394
PD2256   PD        0.783684    0.713534    0.501510     0.005394
PD2257   PD        0.155682    0.750112    0.502584     0.005394
PD2258   PD        0.191165    0.755128    0.468427     0.005394
PD2259   PD        0.191771    0.789996    0.505148     0.005394
AU2260   AU        0.222690    0.751879    0.500606     0.007504
PD2261   PD        0.221832    0.788312    0.466948     0.005394
PD2262   PD        0.256666    0.752120    0.468233     0.005394
PD2263   PD        0.259349    0.786590    0.501631     0.005394
PD2264   PD        0.288813    0.750977    0.505179     0.005394
AU2265   AU        0.289888    0.789214    0.469887     0.007504
AU2266   AU        0.320271    0.751324    0.469634     0.007504
PD2267   PD        0.320631    0.790036    0.502301     0.005394
AU2268   AU        0.353459    0.752983    0.502225     0.007504
AU2269   AU        0.353237    0.788543    0.468203     0.007504
PD2270   PD        0.390320    0.752885    0.468715     0.005394
AU2271   AU        0.387697    0.786351    0.500417     0.007504
AU2272   AU        0.422705    0.753431    0.502816     0.007504
AU2273   AU        0.422492    0.789172    0.469754     0.007504
PD2274   PD        0.455886    0.754714    0.468188     0.005394
AU2275   AU        0.455808    0.788344    0.502746     0.007504
PD2276   PD        0.489053    0.754704    0.502841     0.005394
PD2277   PD        0.488367    0.787623    0.467735     0.005394
AU2278   AU        0.521971    0.752933    0.469975     0.007504
PD2279   PD        0.522166    0.790620    0.502498     0.005394
AU2280   AU        0.555173    0.750340    0.501334     0.007504
AU2281   AU        0.554671    0.788448    0.470373     0.007504
PD2282   PD        0.587669    0.751893    0.470547     0.005394
AU2283   AU        0.586531    0.786663    0.502525     0.007504
AU2284   AU        0.621854    0.754213    0.503321     0.007504
AU2285   AU        0.619811    0.786788    0.467596     0.007504
PD2286   PD        0.655651    0.750721    0.469951     0.005394
PD2287   PD        0.653950    0.789164    0.503825     0.005394
PD2288   PD        0.688381    0.754750    0.501210     0.005394
PD2289   PD        0.685777    0.786678    0.471699     0.005394
AU2290   AU        0.721737    0.752838    0.469643     0.007504
PD2291   PD        0.719353    0.785491    0.502454     0.005394
PD2292   PD        0.754124    0.754123    0.502195     0.005394
PD2293   PD        0.227953    0.825599    0.504774     0.005394
AU2294   AU        0.255084    0.823906    0.468949     0.007504
PD2295   PD        0.290990    0.825646    0.504459     0.005394
PD2296   PD        0.286825    0.860633    0.470371     0.005394
AU2297   AU        0.322928    0.824276    0.470491     0.007504
AU2298   AU        0.321777    0.858891    0.501470     0.007504
PD2299   PD        0.356403    0.823996    0.501926     0.005394
AU2300   AU        0.356407    0.859598    0.468664     0.007504
AU2301   AU        0.385886    0.823908    0.465776     0.007504
AU2302   AU        0.388613    0.857279    0.499893     0.007504
AU2303   AU        0.419755    0.822350    0.502111     0.007504
AU2304   AU        0.420988    0.855137    0.467502     0.007504
AU2305   AU        0.456933    0.824057    0.465875     0.007504
PD2306   PD        0.455562    0.856536    0.499618     0.005394
AU2307   AU        0.488447    0.824654    0.500563     0.007504
AU2308   AU        0.488295    0.860711    0.466905     0.007504
PD2309   PD        0.521689    0.824471    0.466661     0.005394
AU2310   AU        0.521274    0.859755    0.500417     0.007504
AU2311   AU        0.557217    0.824219    0.500977     0.007504
PD2312   PD        0.555603    0.859987    0.468561     0.005394
PD2313   PD        0.587491    0.822059    0.467752     0.005394
PD2314   PD        0.588694    0.860757    0.504867     0.005394
AU2315   AU        0.619994    0.823706    0.503063     0.007504
PD2316   PD        0.617626    0.862888    0.469722     0.005394
PD2317   PD        0.652026    0.825081    0.468948     0.005394
PD2318   PD        0.686045    0.821402    0.501901     0.005394
AU2319   AU        0.389304    0.894599    0.467305     0.007504
PD2320   PD        0.420446    0.891204    0.498613     0.005394
PD2321   PD        0.456756    0.895249    0.470958     0.005394
AU2322   AU        0.488648    0.894512    0.499530     0.007504
PD2323   PD        0.489035    0.928712    0.467423     0.005394
PD2324   PD        0.293222    0.076536    0.535403     0.005394
PD2325   PD        0.327571    0.073621    0.564216     0.005394
AU2326   AU        0.359245    0.075522    0.533402     0.007504
PD2327   PD        0.392340    0.076330    0.568796     0.005394
AU2328   AU        0.422281    0.074873    0.533554     0.007504
PD2329   PD        0.426957    0.040519    0.566539     0.005394
PD2330   PD        0.458988    0.076673    0.567761     0.005394
AU2331   AU        0.489807    0.078133    0.533630     0.007504
AU2332   AU        0.522914    0.080621    0.568167     0.007504
AU2333   AU        0.555374    0.075716    0.534561     0.007504
PD2334   PD        0.588425    0.078340    0.569272     0.005394
PD2335   PD        0.622996    0.077070    0.535865     0.005394
PD2336   PD        0.219663    0.145598    0.535520     0.005394
PD2337   PD        0.228059    0.076752    0.530604     0.005394
AU2338   AU        0.256307    0.146901    0.567255     0.007504
AU2339   AU        0.290250    0.113024    0.566379     0.007504
PD2340   PD        0.289501    0.145504    0.533679     0.005394
AU2341   AU        0.323455    0.110729    0.534675     0.007504
PD2342   PD        0.324804    0.146623    0.566988     0.005394
PD2343   PD        0.359285    0.106609    0.567353     0.005394
PD2344   PD        0.358109    0.147443    0.533128     0.005394
AU2345   AU        0.392628    0.111808    0.533770     0.007504
AU2346   AU        0.390090    0.146563    0.567229     0.007504
PD2347   PD        0.423732    0.109559    0.566377     0.005394
AU2348   AU        0.421247    0.147539    0.535113     0.007504
AU2349   AU        0.454097    0.111680    0.534380     0.007504
AU2350   AU        0.457696    0.147200    0.567216     0.007504
PD2351   PD        0.488700    0.113280    0.566530     0.005394
PD2352   PD        0.488441    0.147475    0.533843     0.005394
AU2353   AU        0.523313    0.111538    0.533328     0.007504
AU2354   AU        0.523142    0.148009    0.568024     0.007504
AU2355   AU        0.555740    0.113123    0.565179     0.007504
PD2356   PD        0.555916    0.147701    0.534587     0.005394
AU2357   AU        0.590100    0.111515    0.532532     0.007504
AU2358   AU        0.589344    0.146662    0.567934     0.007504
AU2359   AU        0.622370    0.111869    0.569942     0.007504
PD2360   PD        0.622526    0.146206    0.532025     0.005394
PD2361   PD        0.655113    0.111567    0.538328     0.005394
PD2362   PD        0.653210    0.149775    0.569604     0.005394
PD2363   PD        0.688280    0.148857    0.533741     0.005394
PD2364   PD        0.157871    0.220943    0.530370     0.005394
AU2365   AU        0.189916    0.185976    0.534301     0.007504
AU2366   AU        0.188867    0.219577    0.566073     0.007504
PD2367   PD        0.219603    0.182560    0.568715     0.005394
AU2368   AU        0.224215    0.218240    0.533893     0.007504
AU2369   AU        0.254008    0.180650    0.534611     0.007504
AU2370   AU        0.256029    0.218147    0.565409     0.007504
AU2371   AU        0.288829    0.181507    0.566579     0.007504
PD2372   PD        0.289119    0.216721    0.533235     0.005394
PD2373   PD        0.322268    0.180800    0.536424     0.005394
AU2374   AU        0.323082    0.217102    0.567692     0.007504
PD2375   PD        0.357257    0.180904    0.567210     0.005394
PD2376   PD        0.357772    0.217735    0.535494     0.005394
PD2377   PD        0.390388    0.182663    0.534787     0.005394
PD2378   PD        0.391292    0.216734    0.565260     0.005394
AU2379   AU        0.424670    0.182274    0.567089     0.007504
AU2380   AU        0.422588    0.218789    0.535431     0.007504
PD2381   PD        0.455361    0.180634    0.532769     0.005394
PD2382   PD        0.456295    0.217886    0.567260     0.005394
AU2383   AU        0.491311    0.184404    0.567954     0.007504
PD2384   PD        0.486745    0.217450    0.534540     0.005394
AU2385   AU        0.522567    0.182292    0.533553     0.007504
AU2386   AU        0.523387    0.219284    0.568997     0.007504
AU2387   AU        0.555127    0.183790    0.567708     0.007504
PD2388   PD        0.554595    0.217349    0.533743     0.005394
AU2389   AU        0.588603    0.184397    0.533621     0.007504
PD2390   PD        0.586988    0.217797    0.569468     0.005394
PD2391   PD        0.619964    0.182588    0.567535     0.005394
PD2392   PD        0.623491    0.220175    0.535314     0.005394
AU2393   AU        0.656105    0.183211    0.535373     0.007504
PD2394   PD        0.653964    0.218651    0.568117     0.005394
AU2395   AU        0.687144    0.183631    0.568241     0.007504
AU2396   AU        0.688204    0.217871    0.534223     0.007504
PD2397   PD        0.719258    0.183519    0.532534     0.005394
PD2398   PD        0.720643    0.216521    0.568659     0.005394
AU2399   AU        0.752440    0.219818    0.534588     0.007504
PD2400   PD        0.090022    0.290176    0.533898     0.005394
PD2401   PD        0.121738    0.250855    0.532792     0.005394
PD2402   PD        0.127393    0.289598    0.567295     0.005394
PD2403   PD        0.156060    0.253096    0.566450     0.005394
AU2404   AU        0.158253    0.287427    0.533739     0.007504
PD2405   PD        0.191496    0.256395    0.532745     0.005394
AU2406   AU        0.188354    0.288419    0.569875     0.007504
AU2407   AU        0.221035    0.253854    0.566784     0.007504
PD2408   PD        0.221941    0.289986    0.534720     0.005394
PD2409   PD        0.254080    0.257132    0.531325     0.005394
PD2410   PD        0.255136    0.292137    0.567199     0.005394
PD2411   PD        0.291096    0.249351    0.567938     0.005394
PD2412   PD        0.288669    0.290465    0.531442     0.005394
PD2413   PD        0.322626    0.257488    0.531107     0.005394
PD2414   PD        0.325032    0.289648    0.569732     0.005394
PD2415   PD        0.357839    0.252619    0.567251     0.005394
AU2416   AU        0.356612    0.290945    0.534733     0.007504
PD2417   PD        0.390365    0.257359    0.536503     0.005394
PD2418   PD        0.389624    0.290058    0.570907     0.005394
AU2419   AU        0.426292    0.254358    0.569165     0.007504
PD2420   PD        0.421977    0.291943    0.536042     0.005394
AU2421   AU        0.454519    0.253785    0.534315     0.007504
AU2422   AU        0.456950    0.291665    0.568538     0.007504
AU2423   AU        0.488447    0.252848    0.566183     0.007504
PD2424   PD        0.491790    0.292650    0.537346     0.005394
AU2425   AU        0.522460    0.253889    0.536104     0.007504
PD2426   PD        0.525520    0.288082    0.571831     0.005394
PD2427   PD        0.557542    0.253733    0.569604     0.005394
PD2428   PD        0.554915    0.288842    0.538088     0.005394
PD2429   PD        0.589018    0.254036    0.533081     0.005394
AU2430   AU        0.588611    0.290758    0.571933     0.007504
AU2431   AU        0.619662    0.254027    0.567791     0.007504
PD2432   PD        0.622134    0.288970    0.534826     0.005394
AU2433   AU        0.655675    0.255250    0.535365     0.007504
PD2434   PD        0.652736    0.290800    0.568059     0.005394
AU2435   AU        0.688282    0.255246    0.566444     0.007504
PD2436   PD        0.686903    0.289650    0.535253     0.005394
PD2437   PD        0.721446    0.254583    0.536959     0.005394
AU2438   AU        0.722753    0.291791    0.568993     0.007504
PD2439   PD        0.754244    0.255772    0.570800     0.005394
PD2440   PD        0.755095    0.291322    0.534223     0.005394
AU2441   AU        0.788376    0.254639    0.534915     0.007504
AU2442   AU        0.784201    0.289833    0.568610     0.007504
AU2443   AU        0.820627    0.288342    0.534457     0.007504
AU2444   AU        0.093599    0.324791    0.567183     0.007504
AU2445   AU        0.091147    0.362262    0.534514     0.007504
AU2446   AU        0.125557    0.326500    0.533852     0.007504
AU2447   AU        0.123772    0.361718    0.566422     0.007504
AU2448   AU        0.157837    0.327042    0.565378     0.007504
AU2449   AU        0.157696    0.361084    0.533628     0.007504
PD2450   PD        0.190404    0.324807    0.534554     0.005394
PD2451   PD        0.190700    0.359423    0.566948     0.005394
PD2452   PD        0.221806    0.325334    0.564887     0.005394
AU2453   AU        0.224431    0.360979    0.534689     0.007504
PD2454   PD        0.256738    0.327233    0.534666     0.005394
AU2455   AU        0.254503    0.362994    0.568594     0.007504
PD2456   PD        0.289775    0.326859    0.567431     0.005394
PD2457   PD        0.288126    0.358663    0.533103     0.005394
PD2458   PD        0.326269    0.326384    0.532561     0.005394
PD2459   PD        0.324488    0.362094    0.566192     0.005394
PD2460   PD        0.356972    0.326994    0.569029     0.005394
AU2461   AU        0.359062    0.361769    0.535575     0.007504
PD2462   PD        0.389089    0.323506    0.535896     0.005394
PD2463   PD        0.391453    0.364082    0.568736     0.005394
PD2464   PD        0.422189    0.324260    0.569351     0.005394
PD2465   PD        0.423940    0.360407    0.536972     0.005394
AU2466   AU        0.453202    0.325997    0.535855     0.007504
PD2467   PD        0.455446    0.360827    0.571939     0.005394
PD2468   PD        0.491368    0.324524    0.571322     0.005394
AU2469   AU        0.489359    0.361955    0.536861     0.007504
PD2470   PD        0.521979    0.329433    0.536849     0.005394
PD2471   PD        0.522491    0.362995    0.569164     0.005394
PD2472   PD        0.555365    0.323593    0.568641     0.005394
PD2473   PD        0.556274    0.364347    0.536115     0.005394
PD2474   PD        0.589986    0.326918    0.536024     0.005394
AU2475   AU        0.588548    0.360973    0.570596     0.007504
PD2476   PD        0.621801    0.325393    0.568084     0.005394
PD2477   PD        0.624362    0.362798    0.537054     0.005394
PD2478   PD        0.651891    0.325145    0.534491     0.005394
PD2479   PD        0.651784    0.360947    0.567969     0.005394
AU2480   AU        0.687778    0.326131    0.569049     0.007504
PD2481   PD        0.685933    0.360752    0.536721     0.005394
PD2482   PD        0.722353    0.328213    0.534514     0.005394
AU2483   AU        0.720060    0.360278    0.567131     0.007504
PD2484   PD        0.753070    0.324827    0.568346     0.005394
PD2485   PD        0.757207    0.362532    0.537873     0.005394
AU2486   AU        0.787396    0.323840    0.537598     0.007504
AU2487   AU        0.785813    0.362158    0.566268     0.007504
PD2488   PD        0.822717    0.291003    0.601771     0.005394
PD2489   PD        0.822440    0.363527    0.535322     0.005394
PD2490   PD        0.055052    0.399019    0.535605     0.005394
AU2491   AU        0.091332    0.429158    0.534375     0.007504
AU2492   AU        0.126105    0.397641    0.534673     0.007504
PD2493   PD        0.123648    0.430057    0.569942     0.005394
AU2494   AU        0.157422    0.399012    0.567814     0.007504
PD2495   PD        0.158118    0.433336    0.534771     0.005394
PD2496   PD        0.187790    0.397142    0.533830     0.005394
PD2497   PD        0.188334    0.434859    0.567206     0.005394
PD2498   PD        0.220840    0.400034    0.568369     0.005394
AU2499   AU        0.222428    0.435248    0.534127     0.007504
AU2500   AU        0.255126    0.398638    0.534120     0.007504
AU2501   AU        0.255500    0.434215    0.567360     0.007504
PD2502   PD        0.287780    0.395353    0.564694     0.005394
PD2503   PD        0.287429    0.432872    0.535571     0.005394
PD2504   PD        0.321920    0.398278    0.534808     0.005394
AU2505   AU        0.323208    0.434408    0.569581     0.007504
AU2506   AU        0.356880    0.399221    0.569150     0.007504
PD2507   PD        0.355951    0.433565    0.535533     0.005394
AU2508   AU        0.388260    0.398609    0.535069     0.007504
AU2509   AU        0.390096    0.432373    0.567908     0.007504
PD2510   PD        0.421471    0.398844    0.568886     0.005394
AU2511   AU        0.421097    0.434075    0.535370     0.007504
AU2512   AU        0.455797    0.397749    0.536394     0.007504
AU2513   AU        0.455680    0.432680    0.569223     0.007504
AU2514   AU        0.486940    0.397620    0.569640     0.007504
PD2515   PD        0.486206    0.432471    0.537064     0.005394
PD2516   PD        0.520743    0.399288    0.535229     0.005394
AU2517   AU        0.521396    0.432070    0.569333     0.007504
AU2518   AU        0.556908    0.399866    0.567288     0.007504
AU2519   AU        0.555704    0.435141    0.534553     0.007504
PD2520   PD        0.589455    0.398539    0.536731     0.005394
PD2521   PD        0.586858    0.435286    0.569321     0.005394
AU2522   AU        0.621212    0.397835    0.571144     0.007504
AU2523   AU        0.621577    0.434658    0.535645     0.007504
AU2524   AU        0.654435    0.397921    0.536347     0.007504
AU2525   AU        0.653521    0.431550    0.568231     0.007504
AU2526   AU        0.685994    0.393952    0.568507     0.007504
AU2527   AU        0.686141    0.433885    0.536496     0.007504
AU2528   AU        0.720901    0.396653    0.536124     0.007504
AU2529   AU        0.721914    0.432346    0.569213     0.007504
AU2530   AU        0.754989    0.396882    0.569444     0.007504
AU2531   AU        0.754592    0.432888    0.537070     0.007504
PD2532   PD        0.786533    0.396070    0.534327     0.005394
AU2533   AU        0.787389    0.432584    0.566804     0.007504
PD2534   PD        0.817830    0.397616    0.568112     0.005394
AU2535   AU        0.819467    0.433018    0.536944     0.007504
PD2536   PD        0.060083    0.465485    0.534286     0.005394
PD2537   PD        0.093100    0.468433    0.567667     0.005394
AU2538   AU        0.093273    0.503472    0.532313     0.007504
PD2539   PD        0.124128    0.464280    0.532651     0.005394
PD2540   PD        0.123461    0.505572    0.567529     0.005394
AU2541   AU        0.155718    0.469630    0.567301     0.007504
AU2542   AU        0.155580    0.505034    0.534042     0.007504
PD2543   PD        0.189267    0.469848    0.533579     0.005394
PD2544   PD        0.188925    0.504825    0.566193     0.005394
AU2545   AU        0.223895    0.468993    0.568477     0.007504
PD2546   PD        0.220475    0.504811    0.534764     0.005394
AU2547   AU        0.255183    0.470686    0.533572     0.007504
PD2548   PD        0.255447    0.507087    0.568504     0.005394
PD2549   PD        0.290175    0.467444    0.568971     0.005394
PD2550   PD        0.290231    0.505163    0.535346     0.005394
PD2551   PD        0.321933    0.468139    0.536180     0.005394
PD2552   PD        0.322809    0.507661    0.568355     0.005394
AU2553   AU        0.356746    0.470038    0.568986     0.007504
AU2554   AU        0.356453    0.505103    0.535402     0.007504
PD2555   PD        0.392624    0.470156    0.536121     0.005394
AU2556   AU        0.390108    0.504706    0.568571     0.007504
AU2557   AU        0.423350    0.470803    0.568757     0.007504
PD2558   PD        0.422235    0.506064    0.535398     0.005394
PD2559   PD        0.456244    0.468105    0.535481     0.005394
AU2560   AU        0.455425    0.505782    0.569228     0.007504
AU2561   AU        0.488561    0.469011    0.567061     0.007504
AU2562   AU        0.488350    0.504796    0.533883     0.007504
AU2563   AU        0.520767    0.470008    0.534196     0.007504
AU2564   AU        0.521249    0.503695    0.566326     0.007504
AU2565   AU        0.554853    0.468987    0.568556     0.007504
AU2566   AU        0.554000    0.505321    0.534971     0.007504
PD2567   PD        0.588627    0.469735    0.533966     0.005394
AU2568   AU        0.588016    0.503251    0.566953     0.007504
AU2569   AU        0.623232    0.467795    0.567797     0.007504
AU2570   AU        0.621085    0.505983    0.536560     0.007504
AU2571   AU        0.653439    0.468977    0.534081     0.007504
AU2572   AU        0.654537    0.504093    0.569058     0.007504
AU2573   AU        0.687357    0.468013    0.566855     0.007504
PD2574   PD        0.688257    0.506233    0.535033     0.005394
AU2575   AU        0.722123    0.468546    0.536819     0.007504
PD2576   PD        0.719286    0.504372    0.567666     0.005394
AU2577   AU        0.753882    0.467417    0.570054     0.007504
PD2578   PD        0.755275    0.503065    0.536729     0.005394
AU2579   AU        0.787685    0.468573    0.536158     0.007504
PD2580   PD        0.788296    0.506714    0.571135     0.005394
AU2581   AU        0.818152    0.469956    0.569537     0.007504
PD2582   PD        0.820345    0.505071    0.534144     0.005394
PD2583   PD        0.850482    0.471038    0.534171     0.005394
AU2584   AU        0.092886    0.540082    0.566164     0.007504
PD2585   PD        0.092780    0.577994    0.533893     0.005394
PD2586   PD        0.125508    0.541011    0.532698     0.005394
AU2587   AU        0.124498    0.576991    0.567259     0.007504
AU2588   AU        0.157952    0.539468    0.567892     0.007504
AU2589   AU        0.157568    0.575787    0.534813     0.007504
PD2590   PD        0.191361    0.540926    0.536690     0.005394
AU2591   AU        0.190152    0.577836    0.568520     0.007504
PD2592   PD        0.223860    0.540945    0.569028     0.005394
PD2593   PD        0.221695    0.576800    0.536917     0.005394
AU2594   AU        0.256221    0.539477    0.533556     0.007504
AU2595   AU        0.256465    0.576136    0.567760     0.007504
PD2596   PD        0.289523    0.539479    0.568092     0.005394
AU2597   AU        0.288970    0.575802    0.534123     0.007504
AU2598   AU        0.322032    0.541063    0.535121     0.007504
PD2599   PD        0.321043    0.575791    0.566340     0.005394
AU2600   AU        0.353883    0.540807    0.567161     0.007504
PD2601   PD        0.354061    0.576692    0.532641     0.005394
PD2602   PD        0.388714    0.541953    0.536195     0.005394
AU2603   AU        0.387314    0.575354    0.566410     0.007504
AU2604   AU        0.421586    0.540691    0.567140     0.007504
AU2605   AU        0.422303    0.576380    0.536852     0.007504
PD2606   PD        0.455626    0.539685    0.535122     0.005394
AU2607   AU        0.455678    0.575831    0.567961     0.007504
PD2608   PD        0.489047    0.539480    0.569407     0.005394
PD2609   PD        0.488636    0.577848    0.534220     0.005394
PD2610   PD        0.519501    0.538236    0.534155     0.005394
AU2611   AU        0.521658    0.574949    0.565671     0.007504
AU2612   AU        0.554136    0.539725    0.567671     0.007504
AU2613   AU        0.556071    0.575000    0.534606     0.007504
AU2614   AU        0.588625    0.540889    0.533934     0.007504
AU2615   AU        0.588577    0.576779    0.567152     0.007504
AU2616   AU        0.619601    0.540950    0.566457     0.007504
PD2617   PD        0.622450    0.575695    0.535475     0.005394
AU2618   AU        0.654242    0.538344    0.535939     0.007504
AU2619   AU        0.653390    0.574510    0.569137     0.007504
PD2620   PD        0.688428    0.537844    0.568129     0.005394
AU2621   AU        0.687404    0.573692    0.535622     0.007504
PD2622   PD        0.722632    0.540864    0.534937     0.005394
AU2623   AU        0.721174    0.575418    0.568551     0.007504
AU2624   AU        0.753827    0.540559    0.569289     0.007504
PD2625   PD        0.754765    0.573442    0.535981     0.005394
AU2626   AU        0.786780    0.539005    0.536003     0.007504
AU2627   AU        0.787038    0.573562    0.569862     0.007504
AU2628   AU        0.821000    0.539321    0.567723     0.007504
PD2629   PD        0.817807    0.576657    0.532819     0.005394
AU2630   AU        0.089863    0.610702    0.568233     0.007504
PD2631   PD        0.090491    0.645442    0.536395     0.005394
AU2632   AU        0.123094    0.612711    0.535592     0.007504
PD2633   PD        0.123849    0.645538    0.567862     0.005394
PD2634   PD        0.157669    0.612862    0.568954     0.005394
AU2635   AU        0.157955    0.645756    0.535770     0.007504
AU2636   AU        0.189860    0.610919    0.533445     0.007504
AU2637   AU        0.191746    0.648067    0.568459     0.007504
AU2638   AU        0.223881    0.613808    0.570262     0.007504
AU2639   AU        0.224205    0.647501    0.533994     0.007504
AU2640   AU        0.255765    0.611269    0.536814     0.007504
AU2641   AU        0.256130    0.647026    0.568370     0.007504
PD2642   PD        0.289357    0.609709    0.569468     0.005394
AU2643   AU        0.289276    0.646308    0.535822     0.007504
AU2644   AU        0.323119    0.612074    0.533095     0.007504
AU2645   AU        0.323469    0.645692    0.567857     0.007504
AU2646   AU        0.355939    0.610670    0.567624     0.007504
PD2647   PD        0.357326    0.644863    0.535291     0.005394
AU2648   AU        0.390157    0.613400    0.535030     0.007504
AU2649   AU        0.391388    0.646963    0.568985     0.007504
AU2650   AU        0.423133    0.611559    0.568171     0.007504
PD2651   PD        0.423471    0.647838    0.535765     0.005394
AU2652   AU        0.454429    0.612188    0.535095     0.007504
PD2653   PD        0.454191    0.647421    0.569300     0.005394
AU2654   AU        0.488979    0.613075    0.567285     0.007504
AU2655   AU        0.488210    0.646713    0.535098     0.007504
AU2656   AU        0.521902    0.610661    0.533415     0.007504
AU2657   AU        0.522132    0.647395    0.568474     0.007504
PD2658   PD        0.555083    0.612418    0.568240     0.005394
AU2659   AU        0.553127    0.644811    0.534491     0.007504
AU2660   AU        0.589989    0.610905    0.534942     0.007504
PD2661   PD        0.585385    0.648626    0.567200     0.005394
AU2662   AU        0.620542    0.612724    0.570025     0.007504
AU2663   AU        0.622373    0.646670    0.533103     0.007504
AU2664   AU        0.654251    0.610905    0.536181     0.007504
AU2665   AU        0.653051    0.645797    0.569607     0.007504
AU2666   AU        0.688128    0.611302    0.567225     0.007504
AU2667   AU        0.688329    0.644214    0.532654     0.007504
PD2668   PD        0.722495    0.610364    0.536113     0.005394
AU2669   AU        0.721480    0.644270    0.570860     0.007504
PD2670   PD        0.753618    0.610928    0.567958     0.005394
AU2671   AU        0.754779    0.647019    0.533729     0.007504
PD2672   PD        0.786267    0.610364    0.536007     0.005394
PD2673   PD        0.784054    0.645745    0.570619     0.005394
AU2674   AU        0.818368    0.609650    0.567858     0.007504
PD2675   PD        0.822567    0.644710    0.533893     0.005394
PD2676   PD        0.123832    0.682673    0.535122     0.005394
AU2677   AU        0.154932    0.682066    0.569312     0.007504
AU2678   AU        0.156215    0.717470    0.534943     0.007504
AU2679   AU        0.188089    0.682244    0.536377     0.007504
AU2680   AU        0.189631    0.716630    0.567714     0.007504
AU2681   AU        0.223085    0.681374    0.568419     0.007504
PD2682   PD        0.222991    0.717723    0.535665     0.005394
PD2683   PD        0.255955    0.683598    0.535380     0.005394
AU2684   AU        0.256307    0.717231    0.568016     0.007504
PD2685   PD        0.290821    0.681000    0.567247     0.005394
AU2686   AU        0.288534    0.716525    0.535908     0.007504
AU2687   AU        0.322637    0.679318    0.533988     0.007504
PD2688   PD        0.323208    0.716316    0.570075     0.005394
PD2689   PD        0.356263    0.680116    0.571668     0.005394
PD2690   PD        0.354898    0.715803    0.535999     0.005394
PD2691   PD        0.387202    0.679314    0.534244     0.005394
PD2692   PD        0.388718    0.718156    0.567039     0.005394
PD2693   PD        0.422953    0.681217    0.567493     0.005394
AU2694   AU        0.422248    0.717152    0.535914     0.007504
AU2695   AU        0.455309    0.683168    0.534584     0.007504
AU2696   AU        0.455721    0.715546    0.568663     0.007504
AU2697   AU        0.487309    0.682180    0.569219     0.007504
PD2698   PD        0.489470    0.716429    0.536082     0.005394
AU2699   AU        0.523383    0.681319    0.533774     0.007504
PD2700   PD        0.523007    0.719751    0.568466     0.005394
PD2701   PD        0.552140    0.682321    0.568784     0.005394
PD2702   PD        0.554919    0.717798    0.533589     0.005394
PD2703   PD        0.586531    0.681967    0.534932     0.005394
AU2704   AU        0.587780    0.716102    0.569039     0.007504
PD2705   PD        0.620359    0.680162    0.569153     0.005394
PD2706   PD        0.621773    0.716323    0.537968     0.005394
AU2707   AU        0.655605    0.681218    0.536487     0.007504
AU2708   AU        0.654545    0.717300    0.570115     0.007504
AU2709   AU        0.687868    0.682477    0.568015     0.007504
AU2710   AU        0.689681    0.718932    0.535368     0.007504
AU2711   AU        0.721852    0.681942    0.535353     0.007504
PD2712   PD        0.721595    0.714891    0.568095     0.005394
AU2713   AU        0.754658    0.680145    0.569187     0.007504
PD2714   PD        0.754905    0.715069    0.535050     0.005394
PD2715   PD        0.786904    0.679210    0.535442     0.005394
PD2716   PD        0.190017    0.752323    0.537919     0.005394
PD2717   PD        0.225842    0.755158    0.568854     0.005394
PD2718   PD        0.223002    0.786216    0.531951     0.005394
AU2719   AU        0.255718    0.751762    0.534895     0.007504
PD2720   PD        0.259027    0.789652    0.569270     0.005394
PD2721   PD        0.288701    0.752827    0.567694     0.005394
AU2722   AU        0.288141    0.786306    0.535308     0.007504
AU2723   AU        0.323384    0.752875    0.536956     0.007504
AU2724   AU        0.322054    0.789724    0.568328     0.007504
PD2725   PD        0.358471    0.754765    0.569309     0.005394
PD2726   PD        0.351990    0.787984    0.535637     0.005394
AU2727   AU        0.388020    0.751078    0.534880     0.007504
PD2728   PD        0.388735    0.786167    0.567596     0.005394
AU2729   AU        0.422792    0.752318    0.567757     0.007504
PD2730   PD        0.421164    0.788428    0.536325     0.005394
AU2731   AU        0.455552    0.752243    0.537009     0.007504
AU2732   AU        0.455533    0.788490    0.569550     0.007504
PD2733   PD        0.487641    0.753026    0.571738     0.005394
AU2734   AU        0.488081    0.787505    0.535624     0.007504
PD2735   PD        0.520686    0.751200    0.536815     0.005394
PD2736   PD        0.521276    0.790849    0.567334     0.005394
AU2737   AU        0.555453    0.754860    0.567341     0.007504
PD2738   PD        0.553266    0.787974    0.535819     0.005394
PD2739   PD        0.589264    0.751713    0.536929     0.005394
PD2740   PD        0.588379    0.790816    0.567786     0.005394
AU2741   AU        0.621506    0.750669    0.567301     0.007504
AU2742   AU        0.619943    0.787979    0.534815     0.007504
AU2743   AU        0.653481    0.752091    0.537592     0.007504
PD2744   PD        0.652752    0.786797    0.566883     0.005394
AU2745   AU        0.688652    0.753592    0.568009     0.007504
AU2746   AU        0.687966    0.785029    0.533904     0.007504
AU2747   AU        0.723551    0.752735    0.537540     0.007504
PD2748   PD        0.253276    0.822253    0.533858     0.005394
PD2749   PD        0.289333    0.823378    0.567823     0.005394
PD2750   PD        0.287979    0.859436    0.533042     0.005394
AU2751   AU        0.321421    0.824769    0.533533     0.007504
AU2752   AU        0.321485    0.858603    0.568593     0.007504
AU2753   AU        0.356412    0.823415    0.567941     0.007504
PD2754   PD        0.354595    0.859051    0.535293     0.005394
AU2755   AU        0.389722    0.825072    0.535755     0.007504
AU2756   AU        0.389188    0.858780    0.568877     0.007504
AU2757   AU        0.423504    0.822496    0.569146     0.007504
AU2758   AU        0.422985    0.858227    0.534006     0.007504
PD2759   PD        0.456918    0.826315    0.535887     0.005394
PD2760   PD        0.454721    0.857803    0.568251     0.005394
AU2761   AU        0.488995    0.823342    0.568791     0.007504
AU2762   AU        0.488789    0.859984    0.533527     0.007504
AU2763   AU        0.521740    0.825014    0.533446     0.007504
AU2764   AU        0.521499    0.858099    0.567333     0.007504
AU2765   AU        0.554689    0.824487    0.566299     0.007504
PD2766   PD        0.553452    0.860130    0.531771     0.005394
PD2767   PD        0.587441    0.823704    0.534713     0.005394
PD2768   PD        0.590611    0.894902    0.602739     0.005394
PD2769   PD        0.617464    0.824784    0.567754     0.005394
PD2770   PD        0.623284    0.857886    0.533870     0.005394
AU2771   AU        0.653014    0.820754    0.535890     0.007504
PD2772   PD        0.453756    0.894402    0.533876     0.005394
PD2773   PD        0.349533    0.003945    0.603633     0.005394
PD2774   PD        0.391374    0.077290    0.634550     0.005394
AU2775   AU        0.425880    0.077697    0.601435     0.007504
PD2776   PD        0.451859    0.073259    0.633677     0.005394
PD2777   PD        0.491640    0.078440    0.599730     0.005394
AU2778   AU        0.525446    0.080836    0.634954     0.007504
AU2779   AU        0.556010    0.080028    0.600529     0.007504
PD2780   PD        0.224835    0.143037    0.600921     0.005394
PD2781   PD        0.260464    0.148591    0.633294     0.005394
PD2782   PD        0.293583    0.114683    0.634609     0.005394
AU2783   AU        0.292006    0.146894    0.599702     0.007504
PD2784   PD        0.328731    0.107879    0.600470     0.005394
AU2785   AU        0.323839    0.148676    0.634503     0.007504
AU2786   AU        0.355022    0.112693    0.633605     0.007504
PD2787   PD        0.355578    0.146189    0.599224     0.005394
AU2788   AU        0.390427    0.110675    0.600492     0.007504
PD2789   PD        0.387984    0.145093    0.632009     0.005394
AU2790   AU        0.423098    0.112627    0.632812     0.007504
PD2791   PD        0.424035    0.147061    0.602123     0.005394
PD2792   PD        0.456323    0.112768    0.600286     0.005394
AU2793   AU        0.456809    0.149509    0.633481     0.007504
PD2794   PD        0.492626    0.110819    0.635950     0.005394
AU2795   AU        0.490196    0.147969    0.601090     0.007504
AU2796   AU        0.524357    0.115123    0.602013     0.007504
AU2797   AU        0.524190    0.146569    0.636896     0.007504
AU2798   AU        0.559134    0.114171    0.634944     0.007504
AU2799   AU        0.556686    0.148125    0.600835     0.007504
AU2800   AU        0.588696    0.112994    0.600727     0.007504
AU2801   AU        0.589708    0.150653    0.634285     0.007504
PD2802   PD        0.617801    0.111539    0.638338     0.005394
AU2803   AU        0.620693    0.149454    0.600602     0.007504
AU2804   AU        0.653660    0.148817    0.633199     0.007504
AU2805   AU        0.688594    0.146274    0.598302     0.007504
PD2806   PD        0.158787    0.175841    0.637904     0.005394
PD2807   PD        0.191963    0.177354    0.600627     0.005394
PD2808   PD        0.192141    0.212677    0.630780     0.005394
PD2809   PD        0.226691    0.180584    0.635293     0.005394
PD2810   PD        0.223490    0.219522    0.598860     0.005394
PD2811   PD        0.259413    0.184622    0.599419     0.005394
AU2812   AU        0.256854    0.216208    0.634510     0.007504
AU2813   AU        0.290246    0.182540    0.633705     0.007504
PD2814   PD        0.288001    0.214411    0.597482     0.005394
AU2815   AU        0.322916    0.182096    0.601440     0.007504
PD2816   PD        0.321709    0.217978    0.632897     0.005394
PD2817   PD        0.356371    0.184576    0.631601     0.005394
PD2818   PD        0.358236    0.219340    0.598717     0.005394
PD2819   PD        0.388564    0.184313    0.599761     0.005394
AU2820   AU        0.391681    0.216674    0.633446     0.007504
PD2821   PD        0.422434    0.181650    0.633528     0.005394
AU2822   AU        0.423516    0.218964    0.600074     0.007504
PD2823   PD        0.457546    0.182725    0.599557     0.005394
PD2824   PD        0.457883    0.216372    0.634252     0.005394
AU2825   AU        0.491974    0.182252    0.636367     0.007504
PD2826   PD        0.485370    0.216591    0.601079     0.005394
AU2827   AU        0.524731    0.182324    0.602344     0.007504
PD2828   PD        0.522455    0.217962    0.635785     0.005394
AU2829   AU        0.555226    0.183765    0.634040     0.007504
AU2830   AU        0.553696    0.218345    0.602502     0.007504
AU2831   AU        0.588429    0.185133    0.599681     0.007504
AU2832   AU        0.589901    0.217500    0.635264     0.007504
AU2833   AU        0.622739    0.183295    0.634019     0.007504
AU2834   AU        0.622858    0.218744    0.601112     0.007504
AU2835   AU        0.654420    0.182986    0.600764     0.007504
PD2836   PD        0.655174    0.217632    0.634145     0.005394
PD2837   PD        0.689745    0.182599    0.632661     0.005394
AU2838   AU        0.686208    0.216407    0.599286     0.007504
PD2839   PD        0.723123    0.182732    0.601044     0.005394
PD2840   PD        0.720160    0.219564    0.634852     0.005394
AU2841   AU        0.752515    0.220908    0.600976     0.007504
PD2842   PD        0.125520    0.285941    0.632376     0.005394
PD2843   PD        0.119801    0.252487    0.666580     0.005394
PD2844   PD        0.153676    0.287507    0.599334     0.005394
AU2845   AU        0.190225    0.251554    0.600506     0.007504
AU2846   AU        0.188610    0.287503    0.632316     0.007504
AU2847   AU        0.224246    0.253540    0.634436     0.007504
AU2848   AU        0.221094    0.288656    0.602667     0.007504
AU2849   AU        0.254441    0.254048    0.598537     0.007504
PD2850   PD        0.253882    0.286405    0.633706     0.005394
AU2851   AU        0.291474    0.255716    0.634152     0.007504
PD2852   PD        0.290711    0.290902    0.603204     0.005394
AU2853   AU        0.322093    0.250821    0.602559     0.007504
PD2854   PD        0.322947    0.287743    0.636345     0.005394
PD2855   PD        0.358490    0.252439    0.634002     0.005394
PD2856   PD        0.354616    0.288748    0.600692     0.005394
AU2857   AU        0.389702    0.256576    0.600756     0.007504
PD2858   PD        0.390025    0.286923    0.635981     0.005394
AU2859   AU        0.424242    0.251323    0.633448     0.007504
AU2860   AU        0.424991    0.288945    0.601196     0.007504
PD2861   PD        0.456517    0.253005    0.601124     0.005394
AU2862   AU        0.456815    0.288179    0.636120     0.007504
PD2863   PD        0.487954    0.252500    0.636412     0.005394
AU2864   AU        0.488029    0.290137    0.601544     0.007504
PD2865   PD        0.521888    0.256411    0.602242     0.005394
AU2866   AU        0.521329    0.290931    0.635550     0.007504
PD2867   PD        0.553717    0.253147    0.635901     0.005394
PD2868   PD        0.556996    0.288255    0.603976     0.005394
PD2869   PD        0.588434    0.252557    0.604243     0.005394
PD2870   PD        0.590992    0.289994    0.637523     0.005394
PD2871   PD        0.624921    0.252862    0.634016     0.005394
PD2872   PD        0.623729    0.291511    0.601208     0.005394
AU2873   AU        0.657366    0.253468    0.601020     0.007504
PD2874   PD        0.656522    0.288710    0.634696     0.005394
PD2875   PD        0.687101    0.255380    0.635382     0.005394
PD2876   PD        0.689712    0.289756    0.599887     0.005394
PD2877   PD        0.718168    0.253750    0.600751     0.005394
PD2878   PD        0.720587    0.290314    0.634319     0.005394
PD2879   PD        0.752498    0.254360    0.634519     0.005394
AU2880   AU        0.756168    0.290729    0.604006     0.007504
PD2881   PD        0.790930    0.293056    0.638041     0.005394
PD2882   PD        0.091641    0.359277    0.605251     0.005394
AU2883   AU        0.125686    0.324856    0.597024     0.007504
AU2884   AU        0.125192    0.361782    0.633054     0.007504
PD2885   PD        0.159375    0.326785    0.630770     0.005394
AU2886   AU        0.156628    0.361897    0.600187     0.007504
PD2887   PD        0.187883    0.325592    0.600168     0.005394
PD2888   PD        0.191705    0.362734    0.634933     0.005394
PD2889   PD        0.220828    0.326448    0.634401     0.005394
PD2890   PD        0.221921    0.360347    0.601530     0.005394
PD2891   PD        0.254612    0.323470    0.602453     0.005394
PD2892   PD        0.255716    0.361539    0.633068     0.005394
PD2893   PD        0.285669    0.327110    0.633947     0.005394
PD2894   PD        0.290044    0.365545    0.600041     0.005394
PD2895   PD        0.320606    0.328199    0.604624     0.005394
PD2896   PD        0.322374    0.360513    0.634679     0.005394
PD2897   PD        0.357564    0.326879    0.636980     0.005394
PD2898   PD        0.356059    0.363621    0.601456     0.005394
PD2899   PD        0.389314    0.325789    0.600309     0.005394
AU2900   AU        0.389362    0.362185    0.635873     0.007504
AU2901   AU        0.422747    0.326541    0.636168     0.007504
AU2902   AU        0.422573    0.359631    0.602690     0.007504
AU2903   AU        0.454854    0.323984    0.603157     0.007504
AU2904   AU        0.456209    0.360747    0.635767     0.007504
PD2905   PD        0.487009    0.324279    0.635005     0.005394
AU2906   AU        0.491030    0.360269    0.601805     0.007504
AU2907   AU        0.523123    0.324276    0.604317     0.007504
AU2908   AU        0.520068    0.361028    0.635540     0.007504
AU2909   AU        0.554662    0.325271    0.636378     0.007504
PD2910   PD        0.554359    0.360483    0.601799     0.005394
PD2911   PD        0.589521    0.326577    0.602208     0.005394
AU2912   AU        0.589471    0.361452    0.634288     0.007504
AU2913   AU        0.623250    0.325441    0.635236     0.007504
PD2914   PD        0.621249    0.363386    0.601523     0.005394
AU2915   AU        0.655662    0.327053    0.602078     0.007504
AU2916   AU        0.655493    0.361086    0.635200     0.007504
AU2917   AU        0.688889    0.326259    0.634006     0.007504
AU2918   AU        0.689276    0.361544    0.601699     0.007504
AU2919   AU        0.722400    0.325382    0.601474     0.007504
PD2920   PD        0.722442    0.360544    0.636091     0.005394
PD2921   PD        0.753415    0.325909    0.634388     0.005394
AU2922   AU        0.753905    0.360877    0.601477     0.007504
AU2923   AU        0.787180    0.327631    0.600687     0.007504
AU2924   AU        0.787660    0.362061    0.633708     0.007504
PD2925   PD        0.822504    0.323492    0.566634     0.005394
PD2926   PD        0.088666    0.395244    0.636755     0.005394
PD2927   PD        0.094192    0.433703    0.598273     0.005394
AU2928   AU        0.126152    0.395584    0.600389     0.007504
PD2929   PD        0.124474    0.433420    0.634890     0.005394
AU2930   AU        0.157636    0.398987    0.633558     0.007504
AU2931   AU        0.158078    0.432798    0.599967     0.007504
AU2932   AU        0.189856    0.398046    0.600860     0.007504
PD2933   PD        0.189198    0.432256    0.631399     0.005394
PD2934   PD        0.224361    0.396390    0.635864     0.005394
AU2935   AU        0.223376    0.432609    0.602920     0.007504
AU2936   AU        0.253618    0.397112    0.599911     0.007504
AU2937   AU        0.255617    0.431858    0.634013     0.007504
PD2938   PD        0.288300    0.397309    0.634866     0.005394
AU2939   AU        0.288258    0.433067    0.600039     0.007504
PD2940   PD        0.323307    0.398481    0.601083     0.005394
PD2941   PD        0.323073    0.435402    0.634634     0.005394
PD2942   PD        0.359069    0.397325    0.635849     0.005394
AU2943   AU        0.356925    0.434515    0.603495     0.007504
AU2944   AU        0.389994    0.398027    0.600640     0.007504
AU2945   AU        0.388318    0.431615    0.637233     0.007504
PD2946   PD        0.419739    0.395419    0.635583     0.005394
AU2947   AU        0.424076    0.431713    0.602168     0.007504
AU2948   AU        0.456028    0.397765    0.602597     0.007504
AU2949   AU        0.455599    0.432037    0.634192     0.007504
AU2950   AU        0.488469    0.397463    0.634538     0.007504
AU2951   AU        0.488772    0.432529    0.602194     0.007504
AU2952   AU        0.521151    0.399649    0.603958     0.007504
PD2953   PD        0.521200    0.431062    0.635881     0.005394
AU2954   AU        0.555225    0.394063    0.636171     0.007504
AU2955   AU        0.554713    0.432110    0.601696     0.007504
AU2956   AU        0.587616    0.399062    0.601857     0.007504
PD2957   PD        0.586515    0.430436    0.634412     0.005394
AU2958   AU        0.622079    0.396442    0.634240     0.007504
PD2959   PD        0.621061    0.434172    0.602796     0.005394
AU2960   AU        0.655097    0.397076    0.602382     0.007504
AU2961   AU        0.655357    0.431682    0.633150     0.007504
PD2962   PD        0.690714    0.395026    0.634906     0.005394
PD2963   PD        0.688356    0.429783    0.601038     0.005394
AU2964   AU        0.722270    0.396911    0.602764     0.007504
AU2965   AU        0.720256    0.434064    0.634115     0.007504
AU2966   AU        0.752640    0.397424    0.636040     0.007504
PD2967   PD        0.754887    0.429158    0.602685     0.005394
AU2968   AU        0.788047    0.397360    0.601511     0.007504
AU2969   AU        0.785528    0.432624    0.634304     0.007504
PD2970   PD        0.852858    0.389658    0.668922     0.005394
PD2971   PD        0.821887    0.431454    0.603449     0.005394
PD2972   PD        0.089028    0.468431    0.631694     0.005394
AU2973   AU        0.088704    0.505469    0.601043     0.007504
AU2974   AU        0.124784    0.469359    0.599470     0.007504
AU2975   AU        0.121732    0.503714    0.634170     0.007504
AU2976   AU        0.158135    0.467214    0.633917     0.007504
PD2977   PD        0.155824    0.505406    0.601436     0.005394
PD2978   PD        0.189739    0.470968    0.600465     0.005394
PD2979   PD        0.188405    0.504910    0.637883     0.005394
PD2980   PD        0.220433    0.468343    0.633812     0.005394
PD2981   PD        0.221120    0.505805    0.601704     0.005394
PD2982   PD        0.256499    0.470058    0.600504     0.005394
AU2983   AU        0.256730    0.504017    0.633486     0.007504
PD2984   PD        0.289808    0.468767    0.635293     0.005394
AU2985   AU        0.288527    0.503626    0.602614     0.007504
PD2986   PD        0.322535    0.470727    0.600289     0.005394
AU2987   AU        0.322216    0.505938    0.634581     0.007504
AU2988   AU        0.357298    0.469939    0.633353     0.007504
AU2989   AU        0.354628    0.507108    0.600730     0.007504
AU2990   AU        0.389169    0.469595    0.599730     0.007504
AU2991   AU        0.391739    0.502347    0.632996     0.007504
PD2992   PD        0.423560    0.467174    0.635157     0.005394
AU2993   AU        0.422308    0.503739    0.601419     0.007504
AU2994   AU        0.456420    0.468540    0.600972     0.007504
AU2995   AU        0.456150    0.505421    0.634933     0.007504
AU2996   AU        0.488713    0.467036    0.634686     0.007504
AU2997   AU        0.489685    0.503879    0.601991     0.007504
AU2998   AU        0.519932    0.467893    0.600913     0.007504
AU2999   AU        0.521876    0.504744    0.635465     0.007504
AU3000   AU        0.552789    0.468824    0.634909     0.007504
PD3001   PD        0.554806    0.505870    0.601736     0.005394
PD3002   PD        0.586899    0.465205    0.603481     0.005394
AU3003   AU        0.587228    0.503738    0.634412     0.007504
PD3004   PD        0.623392    0.467956    0.633403     0.005394
AU3005   AU        0.621197    0.502370    0.601114     0.007504
PD3006   PD        0.656650    0.468941    0.600671     0.005394
PD3007   PD        0.655067    0.503331    0.633181     0.005394
AU3008   AU        0.687739    0.467484    0.634785     0.007504
AU3009   AU        0.688944    0.504187    0.602031     0.007504
AU3010   AU        0.721732    0.466816    0.600344     0.007504
AU3011   AU        0.722444    0.503746    0.635158     0.007504
AU3012   AU        0.756004    0.467692    0.634112     0.007504
AU3013   AU        0.754610    0.505241    0.603221     0.007504
AU3014   AU        0.786099    0.469129    0.600913     0.007504
AU3015   AU        0.784898    0.504886    0.634679     0.007504
PD3016   PD        0.819782    0.467206    0.636289     0.005394
PD3017   PD        0.820407    0.506104    0.602345     0.005394
PD3018   PD        0.090884    0.541838    0.634355     0.005394
PD3019   PD        0.089787    0.575326    0.600764     0.005394
PD3020   PD        0.125776    0.536513    0.598390     0.005394
AU3021   AU        0.121479    0.577713    0.635140     0.007504
PD3022   PD        0.154666    0.539399    0.633623     0.005394
AU3023   AU        0.155818    0.575900    0.600378     0.007504
AU3024   AU        0.189949    0.541243    0.600220     0.007504
PD3025   PD        0.188700    0.576063    0.633444     0.005394
AU3026   AU        0.223546    0.541372    0.634017     0.007504
PD3027   PD        0.224999    0.577106    0.600656     0.005394
PD3028   PD        0.257211    0.540826    0.600160     0.005394
AU3029   AU        0.255602    0.576451    0.636070     0.007504
AU3030   AU        0.289542    0.541199    0.633968     0.007504
AU3031   AU        0.289455    0.577991    0.601593     0.007504
AU3032   AU        0.322606    0.542115    0.601778     0.007504
AU3033   AU        0.324545    0.576633    0.635985     0.007504
PD3034   PD        0.358423    0.542351    0.632890     0.005394
AU3035   AU        0.354529    0.576236    0.600365     0.007504
AU3036   AU        0.389562    0.538817    0.599264     0.007504
PD3037   PD        0.390342    0.575893    0.633590     0.005394
PD3038   PD        0.422877    0.539604    0.634853     0.005394
AU3039   AU        0.421714    0.575028    0.600543     0.007504
PD3040   PD        0.453971    0.540003    0.600857     0.005394
AU3041   AU        0.455203    0.574901    0.633627     0.007504
PD3042   PD        0.486683    0.541818    0.633791     0.005394
AU3043   AU        0.488475    0.576354    0.598293     0.007504
AU3044   AU        0.522661    0.540478    0.602314     0.007504
AU3045   AU        0.522627    0.575189    0.634651     0.007504
PD3046   PD        0.556848    0.538193    0.635945     0.005394
PD3047   PD        0.554867    0.575742    0.600938     0.005394
AU3048   AU        0.588126    0.540641    0.601199     0.007504
PD3049   PD        0.587345    0.575953    0.632889     0.005394
AU3050   AU        0.619560    0.539220    0.635274     0.007504
AU3051   AU        0.619946    0.573380    0.600400     0.007504
AU3052   AU        0.651178    0.539819    0.601313     0.007504
PD3053   PD        0.655715    0.574862    0.635122     0.005394
AU3054   AU        0.689713    0.538211    0.634709     0.007504
AU3055   AU        0.687659    0.573689    0.601940     0.007504
AU3056   AU        0.721762    0.539383    0.601138     0.007504
PD3057   PD        0.720587    0.574299    0.635787     0.005394
PD3058   PD        0.751987    0.540936    0.634789     0.005394
AU3059   AU        0.754063    0.572910    0.601559     0.007504
PD3060   PD        0.788355    0.540250    0.600653     0.005394
AU3061   AU        0.786329    0.576255    0.635467     0.007504
PD3062   PD        0.818818    0.540050    0.632788     0.005394
AU3063   AU        0.819221    0.577159    0.601603     0.007504
AU3064   AU        0.123938    0.610434    0.599306     0.007504
AU3065   AU        0.092023    0.647670    0.601484     0.007504
AU3066   AU        0.155773    0.611745    0.633093     0.007504
AU3067   AU        0.156488    0.647398    0.600766     0.007504
PD3068   PD        0.188766    0.611463    0.602763     0.005394
PD3069   PD        0.188948    0.649385    0.633701     0.005394
AU3070   AU        0.223426    0.613061    0.634566     0.007504
PD3071   PD        0.220810    0.646030    0.602937     0.005394
PD3072   PD        0.255698    0.608475    0.603244     0.005394
AU3073   AU        0.255719    0.647215    0.634389     0.007504
AU3074   AU        0.290803    0.609618    0.634880     0.007504
PD3075   PD        0.289356    0.646678    0.600752     0.005394
AU3076   AU        0.322872    0.609759    0.601149     0.007504
PD3077   PD        0.322089    0.644920    0.634896     0.005394
AU3078   AU        0.357052    0.609670    0.632478     0.007504
AU3079   AU        0.355822    0.645500    0.601172     0.007504
AU3080   AU        0.390282    0.611280    0.599998     0.007504
PD3081   PD        0.391163    0.645337    0.633410     0.005394
PD3082   PD        0.422247    0.609219    0.634285     0.005394
AU3083   AU        0.422064    0.648777    0.601991     0.007504
AU3084   AU        0.454738    0.610339    0.600739     0.007504
AU3085   AU        0.454534    0.646059    0.634123     0.007504
AU3086   AU        0.487540    0.610412    0.633927     0.007504
PD3087   PD        0.486144    0.644897    0.600633     0.005394
AU3088   AU        0.520349    0.610055    0.600666     0.007504
AU3089   AU        0.520385    0.645367    0.634549     0.007504
PD3090   PD        0.555645    0.610669    0.632704     0.005394
AU3091   AU        0.553476    0.646243    0.602597     0.007504
PD3092   PD        0.587852    0.611487    0.601236     0.005394
PD3093   PD        0.586134    0.647741    0.634816     0.005394
AU3094   AU        0.621193    0.610169    0.632793     0.007504
PD3095   PD        0.617560    0.645913    0.602242     0.005394
AU3096   AU        0.655440    0.610297    0.601281     0.007504
AU3097   AU        0.653651    0.645802    0.633124     0.007504
AU3098   AU        0.687629    0.611053    0.633643     0.007504
AU3099   AU        0.688901    0.647326    0.601337     0.007504
AU3100   AU        0.718840    0.610326    0.601822     0.007504
AU3101   AU        0.720243    0.647176    0.633538     0.007504
AU3102   AU        0.751531    0.610277    0.633639     0.007504
PD3103   PD        0.752301    0.646984    0.603091     0.005394
AU3104   AU        0.784638    0.608906    0.601972     0.007504
PD3105   PD        0.785555    0.645216    0.638051     0.005394
PD3106   PD        0.160268    0.719890    0.668318     0.005394
AU3107   AU        0.154408    0.718257    0.602861     0.007504
AU3108   AU        0.189228    0.682530    0.599141     0.007504
AU3109   AU        0.190588    0.716204    0.633321     0.007504
AU3110   AU        0.222197    0.682529    0.634130     0.007504
AU3111   AU        0.222501    0.718789    0.599805     0.007504
AU3112   AU        0.255544    0.682728    0.601595     0.007504
PD3113   PD        0.258347    0.716437    0.635272     0.005394
PD3114   PD        0.289619    0.679408    0.632752     0.005394
AU3115   AU        0.289994    0.717509    0.599982     0.007504
AU3116   AU        0.322147    0.682314    0.602802     0.007504
AU3117   AU        0.323138    0.716572    0.636135     0.007504
AU3118   AU        0.357718    0.679207    0.634992     0.007504
PD3119   PD        0.355746    0.717049    0.599939     0.005394
AU3120   AU        0.389428    0.681709    0.602466     0.007504
AU3121   AU        0.390482    0.717530    0.633632     0.007504
AU3122   AU        0.423256    0.683999    0.633659     0.007504
AU3123   AU        0.422126    0.717249    0.599545     0.007504
AU3124   AU        0.455832    0.683443    0.602701     0.007504
AU3125   AU        0.455124    0.716067    0.635938     0.007504
AU3126   AU        0.488772    0.679994    0.635308     0.007504
AU3127   AU        0.487684    0.718583    0.603787     0.007504
AU3128   AU        0.521374    0.681287    0.601601     0.007504
PD3129   PD        0.519049    0.716695    0.633960     0.005394
AU3130   AU        0.553168    0.682752    0.633572     0.007504
AU3131   AU        0.553490    0.715894    0.601431     0.007504
PD3132   PD        0.586853    0.683448    0.602757     0.005394
PD3133   PD        0.584663    0.717429    0.635882     0.005394
AU3134   AU        0.619588    0.681291    0.633070     0.007504
AU3135   AU        0.620037    0.716867    0.604139     0.007504
PD3136   PD        0.655719    0.681700    0.601677     0.005394
PD3137   PD        0.652357    0.717145    0.634774     0.005394
AU3138   AU        0.687241    0.681976    0.635429     0.007504
PD3139   PD        0.685479    0.717500    0.601934     0.005394
AU3140   AU        0.720049    0.684300    0.604320     0.007504
PD3141   PD        0.719471    0.718944    0.633994     0.005394
PD3142   PD        0.756461    0.680476    0.631833     0.005394
AU3143   AU        0.754541    0.718301    0.601205     0.007504
PD3144   PD        0.189776    0.751338    0.599438     0.005394
AU3145   AU        0.223774    0.753141    0.633761     0.007504
PD3146   PD        0.223959    0.789678    0.601905     0.005394
AU3147   AU        0.256845    0.752677    0.602895     0.007504
AU3148   AU        0.257823    0.789744    0.634911     0.007504
AU3149   AU        0.289436    0.752584    0.635251     0.007504
AU3150   AU        0.290898    0.787171    0.600222     0.007504
AU3151   AU        0.322889    0.753809    0.601778     0.007504
PD3152   PD        0.322421    0.789348    0.635384     0.005394
PD3153   PD        0.354536    0.752678    0.635364     0.005394
PD3154   PD        0.354158    0.790319    0.602065     0.005394
PD3155   PD        0.388865    0.753824    0.600876     0.005394
AU3156   AU        0.390382    0.790349    0.632258     0.007504
PD3157   PD        0.421681    0.751348    0.632687     0.005394
AU3158   AU        0.423222    0.786675    0.602897     0.007504
AU3159   AU        0.456000    0.751956    0.602177     0.007504
AU3160   AU        0.454924    0.787814    0.635377     0.007504
AU3161   AU        0.488042    0.753362    0.636005     0.007504
AU3162   AU        0.490051    0.789251    0.602650     0.007504
AU3163   AU        0.521468    0.751244    0.600160     0.007504
PD3164   PD        0.520795    0.787446    0.634169     0.005394
PD3165   PD        0.551785    0.750187    0.634889     0.005394
AU3166   AU        0.554861    0.789400    0.601587     0.007504
PD3167   PD        0.587340    0.754248    0.600408     0.005394
AU3168   AU        0.587195    0.788454    0.633444     0.007504
PD3169   PD        0.621246    0.754788    0.634403     0.005394
AU3170   AU        0.621535    0.787627    0.601173     0.007504
AU3171   AU        0.656733    0.752852    0.599137     0.007504
PD3172   PD        0.654081    0.825678    0.669218     0.005394
PD3173   PD        0.688709    0.752662    0.635350     0.005394
AU3174   AU        0.718336    0.792630    0.567572     0.007504
PD3175   PD        0.721742    0.752616    0.602634     0.005394
PD3176   PD        0.289902    0.824296    0.637660     0.005394
AU3177   AU        0.322128    0.824472    0.602223     0.007504
PD3178   PD        0.325770    0.825655    0.671623     0.005394
PD3179   PD        0.354934    0.861109    0.601234     0.005394
PD3180   PD        0.392375    0.825082    0.601695     0.005394
PD3181   PD        0.387470    0.853696    0.635147     0.005394
PD3182   PD        0.420027    0.823099    0.637168     0.005394
PD3183   PD        0.440279    0.907289    0.654347     0.005394
AU3184   AU        0.456389    0.823756    0.602944     0.007504
PD3185   PD        0.454303    0.860029    0.638656     0.005394
AU3186   AU        0.489854    0.824767    0.634587     0.007504
AU3187   AU        0.486881    0.859615    0.600998     0.007504
PD3188   PD        0.522288    0.825079    0.601799     0.005394
AU3189   AU        0.520762    0.859523    0.636595     0.007504
AU3190   AU        0.555588    0.822901    0.634972     0.007504
AU3191   AU        0.555324    0.859388    0.603094     0.007504
AU3192   AU        0.586231    0.821822    0.601115     0.007504
PD3193   PD        0.624987    0.821732    0.633387     0.005394
AU3194   AU        0.289655    0.145124    0.668771     0.007504
PD3195   PD        0.322822    0.146424    0.698807     0.005394
AU3196   AU        0.357593    0.146843    0.668836     0.007504
AU3197   AU        0.390496    0.110353    0.667870     0.007504
AU3198   AU        0.391391    0.145815    0.701494     0.007504
PD3199   PD        0.426365    0.113576    0.698829     0.005394
AU3200   AU        0.423192    0.148364    0.665513     0.007504
PD3201   PD        0.457300    0.115951    0.664816     0.005394
PD3202   PD        0.453205    0.146170    0.702945     0.005394
PD3203   PD        0.488664    0.110204    0.703368     0.005394
PD3204   PD        0.491102    0.147958    0.668664     0.005394
PD3205   PD        0.520918    0.073305    0.699037     0.005394
PD3206   PD        0.523759    0.149126    0.700205     0.005394
AU3207   AU        0.555653    0.148892    0.668893     0.007504
AU3208   AU        0.586286    0.145526    0.701958     0.007504
AU3209   AU        0.621781    0.150566    0.668227     0.007504
AU3210   AU        0.223255    0.219042    0.666143     0.007504
AU3211   AU        0.258979    0.182489    0.666905     0.007504
AU3212   AU        0.256435    0.217290    0.700748     0.007504
AU3213   AU        0.288194    0.182119    0.700807     0.007504
PD3214   PD        0.291449    0.218578    0.668849     0.005394
AU3215   AU        0.322011    0.182600    0.667811     0.007504
PD3216   PD        0.323631    0.215279    0.702087     0.005394
AU3217   AU        0.357575    0.180532    0.701754     0.007504
PD3218   PD        0.357557    0.215784    0.670806     0.005394
PD3219   PD        0.389120    0.182764    0.665406     0.005394
PD3220   PD        0.391296    0.217764    0.699011     0.005394
AU3221   AU        0.425590    0.183022    0.698557     0.007504
PD3222   PD        0.424507    0.216995    0.666601     0.005394
AU3223   AU        0.459176    0.181756    0.666791     0.007504
PD3224   PD        0.457453    0.218300    0.700266     0.005394
PD3225   PD        0.489923    0.182769    0.699919     0.005394
AU3226   AU        0.491132    0.217728    0.666895     0.007504
AU3227   AU        0.524254    0.183280    0.669736     0.007504
AU3228   AU        0.523466    0.217508    0.702675     0.007504
AU3229   AU        0.555557    0.183411    0.702273     0.007504
AU3230   AU        0.555655    0.218092    0.668871     0.007504
AU3231   AU        0.587245    0.182371    0.669643     0.007504
AU3232   AU        0.590299    0.216736    0.701887     0.007504
PD3233   PD        0.651005    0.179918    0.739323     0.005394
PD3234   PD        0.622651    0.218510    0.668352     0.005394
PD3235   PD        0.689716    0.185258    0.704781     0.005394
AU3236   AU        0.653203    0.218572    0.702728     0.007504
PD3237   PD        0.686457    0.217920    0.667475     0.005394
PD3238   PD        0.101275    0.285138    0.697467     0.005394
PD3239   PD        0.189631    0.249153    0.664426     0.005394
PD3240   PD        0.131275    0.283673    0.723191     0.005394
AU3241   AU        0.221250    0.253633    0.700096     0.007504
AU3242   AU        0.221245    0.289101    0.667625     0.007504
AU3243   AU        0.257514    0.252544    0.668296     0.007504
PD3244   PD        0.255869    0.292478    0.701000     0.005394
AU3245   AU        0.291557    0.253331    0.701874     0.007504
PD3246   PD        0.289883    0.291142    0.669237     0.005394
PD3247   PD        0.322205    0.250353    0.667105     0.005394
AU3248   AU        0.324449    0.287712    0.701413     0.007504
AU3249   AU        0.356774    0.252793    0.699845     0.007504
PD3250   PD        0.358299    0.286584    0.666947     0.005394
PD3251   PD        0.393101    0.253147    0.669348     0.005394
AU3252   AU        0.388716    0.287913    0.701414     0.007504
PD3253   PD        0.426601    0.252319    0.702222     0.005394
PD3254   PD        0.423698    0.289782    0.669306     0.005394
AU3255   AU        0.455970    0.252246    0.669620     0.007504
AU3256   AU        0.458019    0.289421    0.703280     0.007504
PD3257   PD        0.489923    0.252379    0.702012     0.005394
AU3258   AU        0.487837    0.287524    0.668411     0.007504
PD3259   PD        0.522242    0.254079    0.667803     0.005394
AU3260   AU        0.521168    0.287422    0.700325     0.007504
PD3261   PD        0.555152    0.252791    0.701624     0.005394
PD3262   PD        0.554409    0.288696    0.665976     0.005394
AU3263   AU        0.588095    0.253142    0.667103     0.007504
PD3264   PD        0.588245    0.289391    0.702144     0.005394
PD3265   PD        0.621474    0.251957    0.702959     0.005394
AU3266   AU        0.621705    0.288185    0.669626     0.007504
PD3267   PD        0.656505    0.254008    0.668081     0.005394
PD3268   PD        0.656443    0.286086    0.700857     0.005394
PD3269   PD        0.684139    0.258557    0.695725     0.005394
AU3270   AU        0.689678    0.291919    0.666678     0.007504
PD3271   PD        0.720266    0.252663    0.669612     0.005394
PD3272   PD        0.720423    0.288862    0.699355     0.005394
PD3273   PD        0.753517    0.290908    0.666834     0.005394
PD3274   PD        0.147248    0.338809    0.723646     0.005394
PD3275   PD        0.154788    0.363198    0.668282     0.005394
AU3276   AU        0.189043    0.326648    0.666120     0.007504
PD3277   PD        0.186551    0.359569    0.703353     0.005394
PD3278   PD        0.222973    0.326675    0.699980     0.005394
PD3279   PD        0.222229    0.362387    0.667640     0.005394
PD3280   PD        0.254449    0.325541    0.668729     0.005394
PD3281   PD        0.257240    0.361355    0.698712     0.005394
AU3282   AU        0.291262    0.324775    0.702533     0.007504
AU3283   AU        0.292271    0.360561    0.669492     0.007504
PD3284   PD        0.323103    0.323385    0.664938     0.005394
PD3285   PD        0.324459    0.359002    0.702532     0.005394
PD3286   PD        0.357279    0.325388    0.701105     0.005394
AU3287   AU        0.357171    0.360158    0.667159     0.007504
AU3288   AU        0.391065    0.322850    0.667664     0.007504
PD3289   PD        0.388942    0.360986    0.700914     0.005394
AU3290   AU        0.422216    0.325103    0.701339     0.007504
AU3291   AU        0.423805    0.362439    0.667158     0.007504
AU3292   AU        0.456577    0.322849    0.669814     0.007504
PD3293   PD        0.455408    0.362671    0.699664     0.005394
AU3294   AU        0.489605    0.324483    0.701794     0.007504
AU3295   AU        0.488954    0.361487    0.669487     0.007504
AU3296   AU        0.519889    0.323869    0.669163     0.007504
AU3297   AU        0.522603    0.359027    0.700481     0.007504
AU3298   AU        0.555449    0.323621    0.700001     0.007504
PD3299   PD        0.554204    0.361467    0.666716     0.005394
AU3300   AU        0.588074    0.326781    0.667630     0.007504
AU3301   AU        0.589289    0.360061    0.700356     0.007504
PD3302   PD        0.623925    0.324328    0.701461     0.005394
AU3303   AU        0.621863    0.361457    0.667421     0.007504
AU3304   AU        0.654866    0.326007    0.667451     0.007504
AU3305   AU        0.654811    0.362738    0.700395     0.007504
AU3306   AU        0.687402    0.326197    0.702378     0.007504
PD3307   PD        0.687089    0.363328    0.668766     0.005394
AU3308   AU        0.720251    0.327673    0.668391     0.007504
PD3309   PD        0.718627    0.362836    0.701288     0.005394
PD3310   PD        0.755817    0.327187    0.701829     0.005394
AU3311   AU        0.756537    0.361651    0.668491     0.007504
AU3312   AU        0.123353    0.398327    0.667314     0.007504
PD3313   PD        0.124408    0.436686    0.697794     0.005394
PD3314   PD        0.153945    0.399610    0.700200     0.005394
PD3315   PD        0.160098    0.433910    0.666079     0.005394
PD3316   PD        0.187045    0.394135    0.669365     0.005394
AU3317   AU        0.189941    0.432594    0.700662     0.007504
PD3318   PD        0.225118    0.396894    0.701691     0.005394
PD3319   PD        0.224035    0.432542    0.667301     0.005394
PD3320   PD        0.256285    0.397156    0.666310     0.005394
PD3321   PD        0.257552    0.434880    0.698306     0.005394
PD3322   PD        0.290094    0.397634    0.702256     0.005394
AU3323   AU        0.289720    0.432333    0.668052     0.007504
PD3324   PD        0.324074    0.399757    0.668369     0.005394
PD3325   PD        0.323675    0.435760    0.702416     0.005394
PD3326   PD        0.356591    0.401464    0.699444     0.005394
AU3327   AU        0.355637    0.434414    0.666771     0.007504
PD3328   PD        0.390432    0.399219    0.668832     0.005394
AU3329   AU        0.391475    0.432991    0.702176     0.007504
PD3330   PD        0.424721    0.396474    0.702981     0.005394
AU3331   AU        0.423307    0.431870    0.668296     0.007504
AU3332   AU        0.455603    0.397441    0.665567     0.007504
AU3333   AU        0.454546    0.433533    0.700298     0.007504
PD3334   PD        0.486656    0.396069    0.698718     0.005394
PD3335   PD        0.488916    0.432959    0.667409     0.005394
PD3336   PD        0.522992    0.394892    0.667262     0.005394
AU3337   AU        0.523162    0.429108    0.700500     0.007504
AU3338   AU        0.557318    0.395628    0.699876     0.007504
PD3339   PD        0.555809    0.432964    0.668266     0.005394
PD3340   PD        0.590532    0.395664    0.668758     0.005394
AU3341   AU        0.591712    0.432328    0.700668     0.007504
PD3342   PD        0.622594    0.396651    0.701162     0.005394
AU3343   AU        0.621216    0.432048    0.666970     0.007504
AU3344   AU        0.655536    0.396274    0.666332     0.007504
AU3345   AU        0.657629    0.432833    0.698911     0.007504
PD3346   PD        0.687801    0.395472    0.701071     0.005394
AU3347   AU        0.689194    0.433109    0.667388     0.007504
PD3348   PD        0.719225    0.396709    0.669791     0.005394
AU3349   AU        0.720954    0.432212    0.699620     0.007504
AU3350   AU        0.756166    0.400846    0.699517     0.007504
AU3351   AU        0.751644    0.433234    0.666231     0.007504
AU3352   AU        0.788546    0.401021    0.668006     0.007504
PD3353   PD        0.786441    0.436494    0.699844     0.005394
PD3354   PD        0.125831    0.467402    0.665006     0.005394
AU3355   AU        0.123894    0.502025    0.698195     0.007504
PD3356   PD        0.156984    0.470936    0.699139     0.005394
PD3357   PD        0.156741    0.503775    0.663429     0.005394
AU3358   AU        0.190043    0.469826    0.666049     0.007504
PD3359   PD        0.190708    0.501816    0.701654     0.005394
PD3360   PD        0.225458    0.465847    0.701754     0.005394
PD3361   PD        0.223586    0.505017    0.669747     0.005394
PD3362   PD        0.256252    0.468854    0.666511     0.005394
PD3363   PD        0.254717    0.504959    0.701531     0.005394
PD3364   PD        0.291406    0.471377    0.699104     0.005394
AU3365   AU        0.290900    0.504440    0.666821     0.007504
AU3366   AU        0.323187    0.471909    0.667206     0.007504
PD3367   PD        0.322985    0.505096    0.698574     0.005394
AU3368   AU        0.357482    0.467151    0.700607     0.007504
PD3369   PD        0.357229    0.505262    0.668567     0.005394
PD3370   PD        0.391655    0.470895    0.668345     0.005394
PD3371   PD        0.390180    0.505217    0.698534     0.005394
PD3372   PD        0.422434    0.468663    0.698655     0.005394
PD3373   PD        0.422438    0.500868    0.667219     0.005394
AU3374   AU        0.458985    0.469070    0.668889     0.007504
AU3375   AU        0.455931    0.502538    0.701174     0.007504
PD3376   PD        0.490266    0.465517    0.704351     0.005394
AU3377   AU        0.490201    0.503782    0.667072     0.007504
AU3378   AU        0.523139    0.468989    0.668585     0.007504
AU3379   AU        0.521160    0.507796    0.703569     0.007504
PD3380   PD        0.556581    0.466872    0.701793     0.005394
PD3381   PD        0.555276    0.505754    0.670113     0.005394
AU3382   AU        0.587460    0.467198    0.666444     0.007504
AU3383   AU        0.589882    0.503422    0.702377     0.007504
AU3384   AU        0.621857    0.468367    0.702398     0.007504
AU3385   AU        0.619994    0.503138    0.666539     0.007504
AU3386   AU        0.655868    0.466698    0.666533     0.007504
PD3387   PD        0.655449    0.504602    0.700179     0.005394
AU3388   AU        0.688771    0.468738    0.699124     0.007504
PD3389   PD        0.691120    0.504247    0.668190     0.005394
AU3390   AU        0.722447    0.469630    0.666961     0.007504
AU3391   AU        0.721628    0.504264    0.700568     0.007504
PD3392   PD        0.754191    0.471673    0.698762     0.005394
PD3393   PD        0.754406    0.504594    0.665477     0.005394
AU3394   AU        0.786971    0.469855    0.668629     0.007504
AU3395   AU        0.785750    0.505552    0.699837     0.007504
PD3396   PD        0.125382    0.541423    0.669546     0.005394
PD3397   PD        0.122199    0.545702    0.735059     0.005394
PD3398   PD        0.157521    0.577694    0.666639     0.005394
PD3399   PD        0.190424    0.541533    0.666977     0.005394
PD3400   PD        0.191023    0.575017    0.701572     0.005394
PD3401   PD        0.222680    0.539271    0.702590     0.005394
PD3402   PD        0.223702    0.575973    0.669480     0.005394
PD3403   PD        0.254958    0.541028    0.668406     0.005394
PD3404   PD        0.257896    0.578217    0.700660     0.005394
PD3405   PD        0.289839    0.542145    0.699665     0.005394
PD3406   PD        0.291125    0.574953    0.668347     0.005394
AU3407   AU        0.324201    0.540343    0.669125     0.007504
AU3408   AU        0.322031    0.577716    0.700417     0.007504
PD3409   PD        0.355306    0.539421    0.700698     0.005394
AU3410   AU        0.356992    0.576152    0.668415     0.007504
PD3411   PD        0.387868    0.541583    0.665865     0.005394
PD3412   PD        0.389466    0.575800    0.700997     0.005394
AU3413   AU        0.421994    0.538499    0.701366     0.007504
AU3414   AU        0.424107    0.572822    0.667851     0.007504
PD3415   PD        0.457233    0.539543    0.667923     0.005394
PD3416   PD        0.454124    0.574643    0.700600     0.005394
AU3417   AU        0.487363    0.539330    0.699130     0.007504
PD3418   PD        0.488224    0.573891    0.668236     0.005394
AU3419   AU        0.522479    0.540455    0.668211     0.007504
AU3420   AU        0.520196    0.574486    0.701710     0.007504
AU3421   AU        0.555966    0.541528    0.702130     0.007504
AU3422   AU        0.556296    0.574416    0.667623     0.007504
PD3423   PD        0.588954    0.538247    0.669984     0.005394
PD3424   PD        0.589527    0.573034    0.699492     0.005394
PD3425   PD        0.620877    0.536924    0.701850     0.005394
PD3426   PD        0.621095    0.574433    0.668565     0.005394
PD3427   PD        0.654743    0.538158    0.666896     0.005394
PD3428   PD        0.655370    0.573481    0.700101     0.005394
AU3429   AU        0.687410    0.540152    0.699925     0.007504
PD3430   PD        0.686969    0.576423    0.665355     0.005394
AU3431   AU        0.721468    0.537711    0.667402     0.007504
AU3432   AU        0.717797    0.576067    0.699260     0.007504
AU3433   AU        0.753186    0.540692    0.701415     0.007504
AU3434   AU        0.754439    0.576653    0.668194     0.007504
AU3435   AU        0.786120    0.539593    0.665765     0.007504
PD3436   PD        0.156787    0.612342    0.704172     0.005394
PD3437   PD        0.156460    0.645339    0.667504     0.005394
AU3438   AU        0.190224    0.611542    0.666231     0.007504
AU3439   AU        0.191826    0.647749    0.705289     0.007504
AU3440   AU        0.222585    0.611954    0.701701     0.007504
AU3441   AU        0.223347    0.647356    0.667723     0.007504
PD3442   PD        0.256690    0.613531    0.668957     0.005394
PD3443   PD        0.254126    0.647720    0.701050     0.005394
AU3444   AU        0.290180    0.612218    0.701732     0.007504
PD3445   PD        0.289590    0.647634    0.669833     0.005394
AU3446   AU        0.323657    0.612530    0.668139     0.007504
PD3447   PD        0.320642    0.646044    0.699765     0.005394
AU3448   AU        0.357116    0.612671    0.701435     0.007504
AU3449   AU        0.357212    0.645317    0.666874     0.007504
AU3450   AU        0.390396    0.611084    0.668979     0.007504
AU3451   AU        0.390753    0.646503    0.702775     0.007504
PD3452   PD        0.422481    0.609767    0.700921     0.005394
AU3453   AU        0.423409    0.645693    0.668116     0.007504
AU3454   AU        0.454448    0.609396    0.666688     0.007504
AU3455   AU        0.454883    0.646135    0.702577     0.007504
AU3456   AU        0.486973    0.609059    0.701278     0.007504
AU3457   AU        0.486910    0.643732    0.668438     0.007504
PD3458   PD        0.520653    0.611195    0.668559     0.005394
AU3459   AU        0.519808    0.645353    0.701757     0.007504
PD3460   PD        0.555528    0.611507    0.699409     0.005394
PD3461   PD        0.553521    0.644392    0.668797     0.005394
PD3462   PD        0.588666    0.613590    0.665885     0.005394
PD3463   PD        0.586279    0.646868    0.700686     0.005394
PD3464   PD        0.619567    0.610008    0.703856     0.005394
AU3465   AU        0.621629    0.647920    0.666093     0.007504
PD3466   PD        0.654986    0.612580    0.666569     0.005394
PD3467   PD        0.653974    0.645145    0.699565     0.005394
AU3468   AU        0.687703    0.611719    0.701213     0.007504
AU3469   AU        0.688322    0.646273    0.667102     0.007504
AU3470   AU        0.719390    0.608533    0.666490     0.007504
PD3471   PD        0.720832    0.643060    0.701850     0.005394
PD3472   PD        0.757346    0.647019    0.733028     0.005394
PD3473   PD        0.753981    0.642784    0.666981     0.005394
AU3474   AU        0.189673    0.680611    0.670343     0.007504
AU3475   AU        0.226248    0.680477    0.699087     0.007504
PD3476   PD        0.224551    0.716064    0.667672     0.005394
AU3477   AU        0.256326    0.682222    0.666408     0.007504
AU3478   AU        0.254830    0.716070    0.699816     0.007504
AU3479   AU        0.288569    0.682701    0.701277     0.007504
PD3480   PD        0.288709    0.715205    0.667154     0.005394
PD3481   PD        0.324106    0.681701    0.668063     0.005394
PD3482   PD        0.322096    0.716264    0.701244     0.005394
AU3483   AU        0.357576    0.681224    0.701398     0.007504
AU3484   AU        0.357889    0.716151    0.667372     0.007504
AU3485   AU        0.389306    0.680786    0.667397     0.007504
PD3486   PD        0.388554    0.718037    0.700537     0.005394
AU3487   AU        0.423756    0.681043    0.702027     0.007504
AU3488   AU        0.420017    0.716598    0.668033     0.007504
PD3489   PD        0.455519    0.680108    0.668400     0.005394
PD3490   PD        0.453466    0.717658    0.701354     0.005394
AU3491   AU        0.486639    0.679901    0.702555     0.007504
PD3492   PD        0.486706    0.717824    0.668433     0.005394
AU3493   AU        0.521572    0.680437    0.668191     0.007504
PD3494   PD        0.519085    0.715082    0.700477     0.005394
PD3495   PD        0.554128    0.678985    0.702284     0.005394
PD3496   PD        0.552040    0.717939    0.667105     0.005394
PD3497   PD        0.588505    0.682840    0.666784     0.005394
AU3498   AU        0.587392    0.718460    0.698838     0.007504
PD3499   PD        0.620572    0.681649    0.702346     0.005394
AU3500   AU        0.619968    0.718274    0.669112     0.007504
PD3501   PD        0.654642    0.681904    0.669567     0.005394
AU3502   AU        0.653863    0.718685    0.702363     0.007504
AU3503   AU        0.688813    0.680431    0.702648     0.007504
PD3504   PD        0.756757    0.755842    0.703374     0.005394
PD3505   PD        0.723755    0.679836    0.666090     0.005394
AU3506   AU        0.258781    0.754497    0.667448     0.007504
PD3507   PD        0.290254    0.748199    0.700840     0.005394
AU3508   AU        0.289995    0.789829    0.667481     0.007504
AU3509   AU        0.320981    0.751754    0.667387     0.007504
AU3510   AU        0.322252    0.787383    0.699782     0.007504
PD3511   PD        0.353615    0.753023    0.699561     0.005394
AU3512   AU        0.356795    0.787104    0.665808     0.007504
AU3513   AU        0.390278    0.751962    0.666877     0.007504
AU3514   AU        0.389777    0.786708    0.698778     0.007504
PD3515   PD        0.420473    0.752001    0.702686     0.005394
PD3516   PD        0.421106    0.785486    0.668594     0.005394
AU3517   AU        0.452676    0.753071    0.668438     0.007504
PD3518   PD        0.457851    0.786467    0.705709     0.005394
PD3519   PD        0.488803    0.752915    0.703128     0.005394
AU3520   AU        0.486329    0.786262    0.668954     0.007504
PD3521   PD        0.520163    0.751856    0.668432     0.005394
PD3522   PD        0.554046    0.826486    0.704902     0.005394
AU3523   AU        0.555351    0.752321    0.702378     0.007504
AU3524   AU        0.552088    0.785904    0.666350     0.007504
AU3525   AU        0.584638    0.753260    0.665115     0.007504
PD3526   PD        0.586576    0.788744    0.700433     0.005394
PD3527   PD        0.618403    0.751820    0.702347     0.005394
PD3528   PD        0.620160    0.828189    0.697994     0.005394
PD3529   PD        0.654082    0.752670    0.668688     0.005394
AU3530   AU        0.388751    0.823832    0.667557     0.007504
AU3531   AU        0.424756    0.820755    0.701442     0.007504
AU3532   AU        0.456549    0.822932    0.668770     0.007504
PD3533   PD        0.486641    0.825479    0.699596     0.005394
PD3534   PD        0.521223    0.822916    0.667677     0.005394
PD3535   PD        0.422895    0.149484    0.737750     0.005394
PD3536   PD        0.488222    0.145653    0.733092     0.005394
PD3537   PD        0.288751    0.215906    0.734511     0.005394
PD3538   PD        0.323756    0.184926    0.735040     0.005394
PD3539   PD        0.313163    0.182054    0.800295     0.005394
PD3540   PD        0.359223    0.219415    0.734670     0.005394
PD3541   PD        0.390164    0.183670    0.734707     0.005394
AU3542   AU        0.391021    0.219485    0.765581     0.007504
AU3543   AU        0.424116    0.183297    0.770838     0.007504
PD3544   PD        0.425584    0.217988    0.732768     0.005394
AU3545   AU        0.456989    0.183915    0.733958     0.007504
AU3546   AU        0.457359    0.218451    0.768463     0.007504
PD3547   PD        0.493461    0.184683    0.766128     0.005394
AU3548   AU        0.488810    0.220100    0.734655     0.007504
PD3549   PD        0.520330    0.183999    0.732580     0.005394
AU3550   AU        0.522770    0.221946    0.767759     0.007504
AU3551   AU        0.556564    0.218374    0.735728     0.007504
AU3552   AU        0.589889    0.181638    0.736003     0.007504
AU3553   AU        0.589041    0.218593    0.770150     0.007504
PD3554   PD        0.620313    0.219954    0.737011     0.005394
PD3555   PD        0.223695    0.287244    0.734246     0.005394
AU3556   AU        0.256573    0.250320    0.733070     0.007504
PD3557   PD        0.255700    0.289959    0.761937     0.005394
PD3558   PD        0.273653    0.195866    0.775842     0.005394
PD3559   PD        0.290350    0.288043    0.733711     0.005394
AU3560   AU        0.323704    0.250096    0.733808     0.007504
AU3561   AU        0.323821    0.290211    0.767762     0.007504
AU3562   AU        0.356419    0.253341    0.765834     0.007504
AU3563   AU        0.357988    0.287137    0.735180     0.007504
PD3564   PD        0.392481    0.252244    0.733739     0.005394
AU3565   AU        0.391151    0.288161    0.767072     0.007504
AU3566   AU        0.424264    0.251843    0.766865     0.007504
AU3567   AU        0.423230    0.288334    0.734270     0.007504
PD3568   PD        0.457327    0.252709    0.735387     0.005394
PD3569   PD        0.454569    0.287249    0.769601     0.005394
AU3570   AU        0.488816    0.254859    0.768490     0.007504
AU3571   AU        0.488946    0.289602    0.736062     0.007504
AU3572   AU        0.522907    0.254215    0.734629     0.007504
AU3573   AU        0.523905    0.289002    0.768216     0.007504
AU3574   AU        0.556014    0.254349    0.768140     0.007504
AU3575   AU        0.555796    0.287834    0.734859     0.007504
PD3576   PD        0.588445    0.255231    0.732964     0.005394
AU3577   AU        0.588258    0.288260    0.768045     0.007504
PD3578   PD        0.620956    0.255406    0.766374     0.005394
AU3579   AU        0.622230    0.288750    0.734252     0.007504
AU3580   AU        0.654581    0.252425    0.735623     0.007504
PD3581   PD        0.655220    0.289967    0.766253     0.005394
AU3582   AU        0.687633    0.288207    0.734727     0.007504
PD3583   PD        0.191059    0.328079    0.736077     0.005394
PD3584   PD        0.220461    0.329134    0.770360     0.005394
PD3585   PD        0.222013    0.365580    0.734095     0.005394
PD3586   PD        0.256949    0.326176    0.732732     0.005394
PD3587   PD        0.257851    0.361203    0.765449     0.005394
PD3588   PD        0.291217    0.325705    0.765234     0.005394
AU3589   AU        0.290051    0.360676    0.733517     0.007504
AU3590   AU        0.327196    0.324894    0.733011     0.007504
AU3591   AU        0.323937    0.361807    0.766788     0.007504
AU3592   AU        0.357118    0.322961    0.767094     0.007504
PD3593   PD        0.358785    0.361199    0.733955     0.005394
PD3594   PD        0.390289    0.324949    0.736114     0.005394
PD3595   PD        0.389633    0.357802    0.767800     0.005394
AU3596   AU        0.423433    0.323419    0.765316     0.007504
AU3597   AU        0.422722    0.358962    0.734207     0.007504
PD3598   PD        0.456798    0.322608    0.735783     0.005394
PD3599   PD        0.455831    0.359112    0.769446     0.005394
PD3600   PD        0.489610    0.322046    0.767541     0.005394
PD3601   PD        0.488150    0.358736    0.734499     0.005394
PD3602   PD        0.522968    0.325437    0.734699     0.005394
AU3603   AU        0.522460    0.360353    0.766775     0.007504
PD3604   PD        0.555284    0.325351    0.767343     0.005394
PD3605   PD        0.555771    0.362846    0.735005     0.005394
AU3606   AU        0.590053    0.324443    0.732823     0.007504
PD3607   PD        0.589496    0.359882    0.764486     0.005394
AU3608   AU        0.622000    0.324705    0.768761     0.007504
AU3609   AU        0.622601    0.358934    0.734943     0.007504
PD3610   PD        0.654454    0.323715    0.736174     0.005394
AU3611   AU        0.654526    0.361733    0.767334     0.007504
PD3612   PD        0.689280    0.367192    0.797091     0.005394
AU3613   AU        0.685783    0.362727    0.734755     0.007504
AU3614   AU        0.718489    0.328144    0.736090     0.007504
AU3615   AU        0.153701    0.431925    0.733143     0.007504
AU3616   AU        0.187429    0.398373    0.733531     0.007504
PD3617   PD        0.190959    0.433128    0.771034     0.005394
PD3618   PD        0.222490    0.393498    0.767340     0.005394
PD3619   PD        0.220047    0.431878    0.735761     0.005394
PD3620   PD        0.256217    0.398162    0.733925     0.005394
PD3621   PD        0.255648    0.434884    0.765521     0.005394
AU3622   AU        0.289762    0.396812    0.764730     0.007504
PD3623   PD        0.288906    0.432990    0.732067     0.005394
PD3624   PD        0.326202    0.395882    0.732344     0.005394
AU3625   AU        0.324052    0.431448    0.766770     0.007504
AU3626   AU        0.356629    0.397287    0.767948     0.007504
AU3627   AU        0.355144    0.432840    0.733519     0.007504
PD3628   PD        0.390548    0.394189    0.733466     0.005394
PD3629   PD        0.388840    0.434379    0.764091     0.005394
PD3630   PD        0.422919    0.395856    0.768959     0.005394
PD3631   PD        0.424624    0.434318    0.734859     0.005394
PD3632   PD        0.455490    0.392267    0.736396     0.005394
PD3633   PD        0.457327    0.433568    0.771109     0.005394
PD3634   PD        0.487367    0.395601    0.768654     0.005394
PD3635   PD        0.488256    0.426276    0.734753     0.005394
AU3636   AU        0.522755    0.394132    0.733634     0.007504
PD3637   PD        0.525539    0.435155    0.767020     0.005394
PD3638   PD        0.554051    0.394308    0.767709     0.005394
AU3639   AU        0.556386    0.429986    0.732490     0.007504
PD3640   PD        0.590241    0.396470    0.735762     0.005394
PD3641   PD        0.588373    0.432933    0.766756     0.005394
PD3642   PD        0.624612    0.396470    0.765796     0.005394
AU3643   AU        0.623327    0.433515    0.733214     0.007504
AU3644   AU        0.653784    0.398517    0.732121     0.007504
AU3645   AU        0.652721    0.433176    0.767789     0.007504
PD3646   PD        0.686533    0.399600    0.768257     0.005394
PD3647   PD        0.687741    0.433305    0.732298     0.005394
AU3648   AU        0.720466    0.395784    0.737230     0.007504
PD3649   PD        0.719681    0.435205    0.767419     0.005394
PD3650   PD        0.756234    0.434456    0.731925     0.005394
PD3651   PD        0.156390    0.508360    0.732658     0.005394
PD3652   PD        0.184804    0.467861    0.735207     0.005394
PD3653   PD        0.189720    0.506971    0.769431     0.005394
PD3654   PD        0.223824    0.471497    0.765194     0.005394
PD3655   PD        0.222291    0.507702    0.736782     0.005394
PD3656   PD        0.256149    0.468263    0.734069     0.005394
PD3657   PD        0.259425    0.505856    0.763582     0.005394
PD3658   PD        0.293491    0.466580    0.767622     0.005394
PD3659   PD        0.288030    0.505692    0.733486     0.005394
PD3660   PD        0.322364    0.470109    0.731977     0.005394
AU3661   AU        0.324118    0.505185    0.765482     0.007504
AU3662   AU        0.354124    0.468490    0.767164     0.007504
AU3663   AU        0.356547    0.502697    0.732801     0.007504
PD3664   PD        0.391066    0.467735    0.733575     0.005394
PD3665   PD        0.390714    0.504785    0.764169     0.005394
PD3666   PD        0.421875    0.468728    0.765859     0.005394
PD3667   PD        0.420314    0.505796    0.733153     0.005394
PD3668   PD        0.454114    0.468109    0.731175     0.005394
AU3669   AU        0.454565    0.504663    0.769346     0.007504
PD3670   PD        0.486750    0.468198    0.766797     0.005394
PD3671   PD        0.491038    0.506336    0.735684     0.005394
PD3672   PD        0.519187    0.468847    0.731721     0.005394
PD3673   PD        0.524065    0.503169    0.767069     0.005394
PD3674   PD        0.555856    0.469085    0.767486     0.005394
PD3675   PD        0.557898    0.506029    0.733441     0.005394
AU3676   AU        0.589258    0.467992    0.735246     0.007504
PD3677   PD        0.589589    0.500375    0.766620     0.005394
AU3678   AU        0.623205    0.467769    0.767606     0.007504
PD3679   PD        0.622536    0.501452    0.733768     0.005394
AU3680   AU        0.657173    0.464935    0.734273     0.007504
PD3681   PD        0.656378    0.504548    0.768831     0.005394
AU3682   AU        0.687750    0.469216    0.767133     0.007504
AU3683   AU        0.687083    0.502725    0.732164     0.007504
AU3684   AU        0.721948    0.468562    0.732609     0.007504
PD3685   PD        0.720922    0.503833    0.765080     0.005394
PD3686   PD        0.753143    0.504537    0.731346     0.005394
PD3687   PD        0.157225    0.577683    0.734992     0.005394
PD3688   PD        0.220923    0.542044    0.765712     0.005394
AU3689   AU        0.224424    0.577057    0.734771     0.007504
PD3690   PD        0.254950    0.541130    0.732913     0.005394
PD3691   PD        0.257298    0.577486    0.768015     0.005394
AU3692   AU        0.292146    0.538808    0.765339     0.007504
AU3693   AU        0.288419    0.577273    0.734665     0.007504
AU3694   AU        0.322809    0.540606    0.732404     0.007504
PD3695   PD        0.325791    0.576938    0.766624     0.005394
PD3696   PD        0.354774    0.539906    0.767252     0.005394
PD3697   PD        0.356648    0.576080    0.732627     0.005394
PD3698   PD        0.386654    0.540335    0.737385     0.005394
PD3699   PD        0.390012    0.574856    0.768818     0.005394
PD3700   PD        0.421956    0.542927    0.766457     0.005394
PD3701   PD        0.420116    0.573392    0.734460     0.005394
AU3702   AU        0.455701    0.540273    0.732194     0.007504
PD3703   PD        0.459314    0.572884    0.766569     0.005394
PD3704   PD        0.491413    0.542123    0.768557     0.005394
PD3705   PD        0.487745    0.573636    0.734703     0.005394
PD3706   PD        0.522324    0.541950    0.735744     0.005394
PD3707   PD        0.521643    0.574262    0.768693     0.005394
PD3708   PD        0.559476    0.537726    0.766937     0.005394
AU3709   AU        0.554851    0.574429    0.736165     0.007504
PD3710   PD        0.590454    0.541297    0.733138     0.005394
PD3711   PD        0.588525    0.575060    0.766770     0.005394
PD3712   PD        0.621402    0.537718    0.767977     0.005394
PD3713   PD        0.622276    0.572029    0.735708     0.005394
AU3714   AU        0.654770    0.536314    0.734873     0.007504
PD3715   PD        0.653746    0.574645    0.766216     0.005394
AU3716   AU        0.686457    0.538685    0.767241     0.007504
PD3717   PD        0.685719    0.576696    0.734553     0.005394
AU3718   AU        0.717621    0.539486    0.734074     0.007504
PD3719   PD        0.189723    0.612706    0.736614     0.005394
PD3720   PD        0.224199    0.608622    0.769214     0.005394
PD3721   PD        0.223984    0.647234    0.734345     0.005394
PD3722   PD        0.255737    0.613514    0.733361     0.005394
PD3723   PD        0.254752    0.647607    0.767610     0.005394
AU3724   AU        0.290953    0.611857    0.766448     0.007504
AU3725   AU        0.290420    0.649193    0.732551     0.007504
AU3726   AU        0.322584    0.612856    0.733784     0.007504
PD3727   PD        0.325456    0.647689    0.769622     0.005394
AU3728   AU        0.355539    0.608592    0.767014     0.007504
PD3729   PD        0.356499    0.646876    0.735014     0.005394
PD3730   PD        0.390715    0.611548    0.734707     0.005394
PD3731   PD        0.388441    0.646274    0.766986     0.005394
AU3732   AU        0.423234    0.610078    0.766780     0.007504
PD3733   PD        0.423353    0.647853    0.736616     0.005394
PD3734   PD        0.454497    0.607126    0.735647     0.005394
PD3735   PD        0.455656    0.645126    0.768614     0.005394
AU3736   AU        0.488322    0.611715    0.766579     0.007504
PD3737   PD        0.486098    0.646424    0.732734     0.005394
AU3738   AU        0.521316    0.609111    0.734159     0.007504
PD3739   PD        0.520580    0.644237    0.766580     0.005394
AU3740   AU        0.554206    0.609959    0.768305     0.007504
AU3741   AU        0.553602    0.645421    0.733848     0.007504
PD3742   PD        0.587719    0.608178    0.732870     0.005394
PD3743   PD        0.588327    0.647742    0.767172     0.005394
AU3744   AU        0.622677    0.610511    0.765254     0.007504
PD3745   PD        0.620704    0.648078    0.736987     0.005394
PD3746   PD        0.653940    0.613264    0.732557     0.005394
PD3747   PD        0.658040    0.646710    0.766368     0.005394
PD3748   PD        0.718625    0.637726    0.774046     0.005394
PD3749   PD        0.689777    0.644000    0.736355     0.005394
AU3750   AU        0.723392    0.608137    0.733462     0.007504
AU3751   AU        0.257346    0.683070    0.734860     0.007504
PD3752   PD        0.289240    0.683592    0.768267     0.005394
PD3753   PD        0.287255    0.718583    0.737659     0.005394
AU3754   AU        0.323258    0.681539    0.735025     0.007504
PD3755   PD        0.358926    0.710429    0.874582     0.005394
PD3756   PD        0.357393    0.680614    0.768848     0.005394
AU3757   AU        0.354255    0.717721    0.734865     0.007504
PD3758   PD        0.389553    0.681415    0.734070     0.005394
AU3759   AU        0.391607    0.717984    0.767640     0.007504
AU3760   AU        0.421691    0.682360    0.768523     0.007504
PD3761   PD        0.423350    0.716993    0.735778     0.005394
AU3762   AU        0.455078    0.683015    0.734915     0.007504
PD3763   PD        0.452318    0.716620    0.768475     0.005394
AU3764   AU        0.488332    0.680595    0.769066     0.007504
PD3765   PD        0.488218    0.717202    0.735687     0.005394
AU3766   AU        0.519444    0.681203    0.734694     0.007504
AU3767   AU        0.518758    0.716190    0.768218     0.007504
AU3768   AU        0.552889    0.683652    0.766661     0.007504
PD3769   PD        0.556862    0.717924    0.735349     0.005394
PD3770   PD        0.587819    0.679023    0.735857     0.005394
PD3771   PD        0.588967    0.716384    0.768225     0.005394
PD3772   PD        0.630051    0.697136    0.757965     0.005394
PD3773   PD        0.621379    0.753246    0.771016     0.005394
PD3774   PD        0.653770    0.679764    0.732810     0.005394
PD3775   PD        0.322580    0.754083    0.733457     0.005394
AU3776   AU        0.386861    0.751481    0.735664     0.007504
PD3777   PD        0.422636    0.752361    0.769124     0.005394
PD3778   PD        0.424815    0.823838    0.766194     0.005394
PD3779   PD        0.454651    0.752852    0.737135     0.005394
PD3780   PD        0.486581    0.755141    0.768204     0.005394
PD3781   PD        0.455684    0.821895    0.736469     0.005394
PD3782   PD        0.519325    0.753680    0.735634     0.005394
PD3783   PD        0.587757    0.754313    0.735289     0.005394
PD3784   PD        0.486988    0.179879    0.832947     0.005394
AU3785   AU        0.493201    0.219175    0.802645     0.007504
PD3786   PD        0.220036    0.363697    0.804247     0.005394
AU3787   AU        0.358974    0.288745    0.799926     0.007504
PD3788   PD        0.391578    0.252168    0.796689     0.005394
PD3789   PD        0.385610    0.254997    0.871230     0.005394
PD3790   PD        0.424000    0.288404    0.801392     0.005394
AU3791   AU        0.457963    0.253874    0.801189     0.007504
AU3792   AU        0.459550    0.289128    0.832773     0.007504
PD3793   PD        0.490814    0.289384    0.799992     0.005394
PD3794   PD        0.522764    0.257189    0.804433     0.005394
AU3795   AU        0.522202    0.292860    0.831149     0.007504
AU3796   AU        0.555151    0.288499    0.801329     0.007504
PD3797   PD        0.620757    0.289730    0.800563     0.005394
PD3798   PD        0.288856    0.361100    0.795342     0.005394
PD3799   PD        0.321879    0.324116    0.799866     0.005394
PD3800   PD        0.322114    0.359114    0.831817     0.005394
PD3801   PD        0.360469    0.325669    0.831436     0.005394
PD3802   PD        0.358198    0.363179    0.802681     0.005394
AU3803   AU        0.389394    0.323491    0.801659     0.007504
PD3804   PD        0.392159    0.358014    0.833531     0.005394
AU3805   AU        0.425105    0.323657    0.833224     0.007504
AU3806   AU        0.421318    0.357602    0.799007     0.007504
AU3807   AU        0.456960    0.324556    0.799957     0.007504
AU3808   AU        0.455738    0.361506    0.833135     0.007504
AU3809   AU        0.488860    0.326235    0.832141     0.007504
PD3810   PD        0.489796    0.360644    0.799881     0.005394
AU3811   AU        0.522872    0.326733    0.799379     0.007504
PD3812   PD        0.522031    0.358495    0.833100     0.005394
AU3813   AU        0.555163    0.325413    0.832510     0.007504
PD3814   PD        0.556171    0.357604    0.798796     0.005394
PD3815   PD        0.590135    0.323897    0.800775     0.005394
AU3816   AU        0.589295    0.361874    0.833056     0.007504
AU3817   AU        0.622975    0.359283    0.801703     0.007504
PD3818   PD        0.226097    0.429823    0.799647     0.005394
AU3819   AU        0.256492    0.396254    0.795913     0.007504
PD3820   PD        0.289691    0.392888    0.832064     0.005394
PD3821   PD        0.288428    0.432907    0.799048     0.005394
PD3822   PD        0.323183    0.394584    0.798405     0.005394
PD3823   PD        0.317111    0.431005    0.830061     0.005394
PD3824   PD        0.364339    0.383873    0.844694     0.005394
AU3825   AU        0.356465    0.431506    0.800248     0.007504
PD3826   PD        0.388523    0.395438    0.798935     0.005394
PD3827   PD        0.391109    0.434320    0.834739     0.005394
PD3828   PD        0.419954    0.396018    0.832180     0.005394
PD3829   PD        0.423839    0.433580    0.801950     0.005394
AU3830   AU        0.454973    0.393595    0.800627     0.007504
PD3831   PD        0.452387    0.434604    0.833548     0.005394
PD3832   PD        0.488250    0.398088    0.833097     0.005394
AU3833   AU        0.489869    0.432268    0.799241     0.007504
PD3834   PD        0.520718    0.394458    0.799516     0.005394
PD3835   PD        0.521808    0.431309    0.833154     0.005394
AU3836   AU        0.555484    0.394510    0.833351     0.007504
AU3837   AU        0.554962    0.430198    0.802882     0.007504
PD3838   PD        0.588669    0.397452    0.798107     0.005394
PD3839   PD        0.587173    0.428546    0.835576     0.005394
PD3840   PD        0.622304    0.398450    0.833190     0.005394
PD3841   PD        0.619389    0.432366    0.801583     0.005394
PD3842   PD        0.654311    0.399249    0.799657     0.005394
PD3843   PD        0.687686    0.430246    0.803105     0.005394
PD3844   PD        0.194866    0.457170    0.826869     0.005394
PD3845   PD        0.257517    0.470846    0.796504     0.005394
PD3846   PD        0.285088    0.468127    0.831316     0.005394
AU3847   AU        0.289345    0.505824    0.799381     0.007504
PD3848   PD        0.324655    0.469715    0.800878     0.005394
PD3849   PD        0.321404    0.504465    0.834869     0.005394
PD3850   PD        0.357270    0.471903    0.835293     0.005394
PD3851   PD        0.354652    0.505595    0.798252     0.005394
PD3852   PD        0.390474    0.466462    0.795954     0.005394
PD3853   PD        0.388810    0.508054    0.835097     0.005394
PD3854   PD        0.419132    0.471236    0.836467     0.005394
PD3855   PD        0.419178    0.506344    0.802413     0.005394
AU3856   AU        0.455497    0.470294    0.802187     0.007504
AU3857   AU        0.456240    0.504586    0.833773     0.007504
PD3858   PD        0.487487    0.469134    0.834645     0.005394
PD3859   PD        0.492388    0.502022    0.799309     0.005394
PD3860   PD        0.524838    0.467652    0.799802     0.005394
PD3861   PD        0.523238    0.541575    0.864351     0.005394
PD3862   PD        0.554393    0.487125    0.886177     0.005394
PD3863   PD        0.556031    0.502695    0.801191     0.005394
PD3864   PD        0.591352    0.469377    0.801398     0.005394
PD3865   PD        0.587695    0.501331    0.833596     0.005394
PD3866   PD        0.619975    0.467039    0.835522     0.005394
PD3867   PD        0.620378    0.499606    0.803285     0.005394
PD3868   PD        0.653547    0.469079    0.799737     0.005394
AU3869   AU        0.687874    0.501969    0.800577     0.007504
AU3870   AU        0.254035    0.537903    0.797614     0.007504
PD3871   PD        0.284521    0.537912    0.901859     0.005394
AU3872   AU        0.289622    0.574775    0.797652     0.007504
PD3873   PD        0.321602    0.538194    0.800281     0.005394
AU3874   AU        0.320596    0.574769    0.831531     0.007504
AU3875   AU        0.354221    0.541088    0.832342     0.007504
AU3876   AU        0.355565    0.574641    0.799606     0.007504
AU3877   AU        0.388305    0.540301    0.800931     0.007504
AU3878   AU        0.388928    0.574256    0.832370     0.007504
PD3879   PD        0.425816    0.541318    0.833300     0.005394
AU3880   AU        0.422859    0.575497    0.801949     0.007504
PD3881   PD        0.455576    0.540104    0.798897     0.005394
AU3882   AU        0.457959    0.576740    0.834195     0.007504
AU3883   AU        0.487308    0.540740    0.833782     0.007504
AU3884   AU        0.489315    0.574732    0.799299     0.007504
AU3885   AU        0.524138    0.539397    0.803314     0.007504
AU3886   AU        0.524676    0.577856    0.834251     0.007504
AU3887   AU        0.557386    0.538455    0.835402     0.007504
AU3888   AU        0.557245    0.574194    0.800730     0.007504
AU3889   AU        0.589834    0.539408    0.802233     0.007504
AU3890   AU        0.587292    0.578901    0.835054     0.007504
PD3891   PD        0.619614    0.541263    0.834162     0.005394
AU3892   AU        0.620515    0.578428    0.802112     0.007504
PD3893   PD        0.657451    0.542348    0.799857     0.005394
AU3894   AU        0.290359    0.644330    0.799510     0.007504
AU3895   AU        0.324106    0.611754    0.800351     0.007504
AU3896   AU        0.355173    0.610449    0.834590     0.007504
PD3897   PD        0.358120    0.646118    0.801626     0.005394
AU3898   AU        0.388239    0.608131    0.801859     0.007504
PD3899   PD        0.392768    0.607852    0.865861     0.005394
PD3900   PD        0.424360    0.611084    0.837558     0.005394
AU3901   AU        0.419664    0.644393    0.802558     0.007504
AU3902   AU        0.455140    0.610416    0.799699     0.007504
AU3903   AU        0.454590    0.644892    0.832897     0.007504
PD3904   PD        0.488915    0.609948    0.832854     0.005394
AU3905   AU        0.488378    0.645832    0.800620     0.007504
AU3906   AU        0.521748    0.611192    0.799768     0.007504
PD3907   PD        0.519543    0.646454    0.833594     0.005394
PD3908   PD        0.556713    0.613944    0.834190     0.005394
PD3909   PD        0.554343    0.647967    0.800989     0.005394
PD3910   PD        0.617544    0.614806    0.831925     0.005394
PD3911   PD        0.625787    0.644667    0.798743     0.005394
AU3912   AU        0.388751    0.682078    0.802563     0.007504
PD3913   PD        0.419118    0.719415    0.802252     0.005394
PD3914   PD        0.451973    0.682296    0.802773     0.005394
AU3915   AU        0.486920    0.715643    0.802466     0.007504
AU3916   AU        0.521596    0.681971    0.799502     0.007504
PD3917   PD        0.421066    0.470157    0.900497     0.005394
PD3918   PD        0.453099    0.397258    0.866381     0.005394
PD3919   PD        0.487846    0.430804    0.865307     0.005394
PD3920   PD        0.388690    0.471404    0.869596     0.005394
AU3921   AU        0.424654    0.508744    0.868423     0.007504
AU3922   AU        0.454270    0.468617    0.867207     0.007504
PD3923   PD        0.488099    0.505546    0.866345     0.005394
PD3924   PD        0.486520    0.467382    0.902058     0.005394
PD3925   PD        0.455680    0.539281    0.870050     0.005394
