data_00001
_audit_creation_method   'DISCUS'

_data_chemical_name_common 'Au.cell: Pearson 85'

_cell_length_a             61.1835
_cell_length_b             57.1046
_cell_length_c             57.1046
_cell_angle_alpha     90.0000
_cell_angle_beta      90.0000
_cell_angle_gamma     90.0000

_symmetry_space_group_name_H-M   'P1              '

loop_
_atom_site_label
_atom_site_symbol
_atom_site_fract_x
_atom_site_fract_y
_atom_site_fract_z
_atom_site_u_iso_or_equiv
AU1   AU        0.364527    0.285620    0.066470     0.007504
AU2   AU        0.433744    0.287395    0.058980     0.007504
AU3   AU        0.496275    0.287421    0.061729     0.007504
AU4   AU        0.298118    0.359993    0.063268     0.007504
AU5   AU        0.329017    0.321107    0.064328     0.007504
AU6   AU        0.367463    0.358226    0.066057     0.007504
AU7   AU        0.396982    0.320909    0.062780     0.007504
AU8   AU        0.431408    0.355679    0.063981     0.007504
PT9   PT        0.463859    0.321419    0.061128     0.004505
AU10   AU        0.496601    0.356768    0.064597     0.007504
AU11   AU        0.528456    0.322909    0.058698     0.007504
AU12   AU        0.562547    0.354699    0.063577     0.007504
AU13   AU        0.263655    0.395340    0.065022     0.007504
PT14   PT        0.296867    0.429544    0.062212     0.004505
PT15   PT        0.333457    0.391719    0.061962     0.004505
PT16   PT        0.367497    0.425966    0.061752     0.004505
AU17   AU        0.400944    0.392674    0.063532     0.007504
AU18   AU        0.400659    0.426253    0.023798     0.007504
AU19   AU        0.432715    0.393249    0.027273     0.007504
PT20   PT        0.431774    0.428212    0.064620     0.004505
PT21   PT        0.463422    0.391368    0.063072     0.004505
PT22   PT        0.464165    0.427675    0.026134     0.004505
AU23   AU        0.498874    0.426133    0.059509     0.007504
AU24   AU        0.530517    0.390846    0.061869     0.007504
PT25   PT        0.568991    0.426811    0.064450     0.004505
PT26   PT        0.597448    0.386561    0.061739     0.004505
PT27   PT        0.267366    0.467551    0.062370     0.004505
AU28   AU        0.302107    0.496246    0.063698     0.007504
AU29   AU        0.335769    0.462670    0.063529     0.007504
AU30   AU        0.368957    0.462499    0.025343     0.007504
PT31   PT        0.365494    0.499425    0.062634     0.004505
AU32   AU        0.397509    0.463841    0.061780     0.007504
PT33   PT        0.399811    0.502646    0.030331     0.004505
AU34   AU        0.430109    0.463315    0.025678     0.007504
AU35   AU        0.432609    0.496976    0.063707     0.007504
AU36   AU        0.462832    0.463237    0.064976     0.007504
PT37   PT        0.463904    0.497733    0.024924     0.004505
AU38   AU        0.496478    0.464339    0.028603     0.007504
PT39   PT        0.497722    0.497430    0.062877     0.004505
AU40   AU        0.530285    0.461568    0.060528     0.007504
AU41   AU        0.564376    0.498717    0.060548     0.007504
PT42   PT        0.602663    0.460767    0.064276     0.004505
PT43   PT        0.269447    0.533857    0.068641     0.004505
PT44   PT        0.301622    0.569623    0.066573     0.004505
PT45   PT        0.331383    0.533142    0.062885     0.004505
AU46   AU        0.364794    0.566888    0.066084     0.007504
PT47   PT        0.399660    0.537124    0.060549     0.004505
AU48   AU        0.434352    0.534756    0.029093     0.007504
AU49   AU        0.433204    0.569502    0.062462     0.007504
AU50   AU        0.466708    0.534855    0.064202     0.007504
PT51   PT        0.498727    0.570757    0.065933     0.004505
AU52   AU        0.529109    0.534741    0.063005     0.007504
AU53   AU        0.571548    0.587423    0.000714     0.007504
PT54   PT        0.598503    0.533810    0.062332     0.004505
PT55   PT        0.334896    0.603767    0.067475     0.004505
PT56   PT        0.366594    0.639202    0.065098     0.004505
AU57   AU        0.398897    0.604520    0.066873     0.007504
PT58   PT        0.431693    0.637910    0.067572     0.004505
AU59   AU        0.465315    0.603419    0.067689     0.007504
PT60   PT        0.496131    0.638499    0.067422     0.004505
PT61   PT        0.531559    0.608294    0.065086     0.004505
PT62   PT        0.302630    0.214692    0.135007     0.004505
PT63   PT        0.363110    0.211965    0.137022     0.004505
PT64   PT        0.397865    0.178689    0.134899     0.004505
PT65   PT        0.399694    0.216526    0.102400     0.004505
AU66   AU        0.431727    0.212751    0.133823     0.007504
PT67   PT        0.466859    0.180231    0.133925     0.004505
AU68   AU        0.461491    0.214329    0.096808     0.007504
AU69   AU        0.502211    0.216640    0.131732     0.007504
AU70   AU        0.564386    0.218755    0.131516     0.007504
AU71   AU        0.236369    0.291841    0.139332     0.007504
PT72   PT        0.269882    0.253042    0.138285     0.004505
PT73   PT        0.269562    0.289106    0.103691     0.004505
AU74   AU        0.300689    0.290277    0.138715     0.007504
AU75   AU        0.334062    0.252396    0.140060     0.007504
AU76   AU        0.334023    0.286879    0.101632     0.007504
AU77   AU        0.363993    0.249771    0.100868     0.007504
PT78   PT        0.367504    0.289561    0.138939     0.004505
AU79   AU        0.398115    0.251719    0.134286     0.007504
PT80   PT        0.397503    0.285279    0.098099     0.004505
PT81   PT        0.429774    0.250843    0.095849     0.004505
AU82   AU        0.432987    0.283881    0.133859     0.007504
PT83   PT        0.464803    0.248686    0.134331     0.004505
AU84   AU        0.461732    0.287809    0.099011     0.007504
AU85   AU        0.495379    0.250642    0.097305     0.007504
PT86   PT        0.495872    0.284937    0.138356     0.004505
AU87   AU        0.531129    0.254766    0.136156     0.007504
AU88   AU        0.530037    0.284519    0.095852     0.007504
PT89   PT        0.565248    0.288967    0.134153     0.004505
AU90   AU        0.597080    0.252628    0.130201     0.007504
AU91   AU        0.600227    0.289715    0.095258     0.007504
AU92   AU        0.666296    0.280542    0.103297     0.007504
PT93   PT        0.204313    0.326759    0.137663     0.004505
PT94   PT        0.236399    0.361048    0.137974     0.004505
PT95   PT        0.269749    0.325450    0.139159     0.004505
PT96   PT        0.269073    0.359461    0.102342     0.004505
PT97   PT        0.300913    0.325382    0.101537     0.004505
AU98   AU        0.302505    0.360412    0.137169     0.007504
AU99   AU        0.334329    0.324643    0.138551     0.007504
AU100   AU        0.333819    0.358861    0.101045     0.007504
AU101   AU        0.366537    0.321708    0.102318     0.007504
AU102   AU        0.366656    0.357957    0.138591     0.007504
PT103   PT        0.401455    0.323886    0.136569     0.004505
AU104   AU        0.399208    0.358351    0.100829     0.007504
PT105   PT        0.430570    0.321864    0.097524     0.004505
PT106   PT        0.434674    0.358857    0.139031     0.004505
AU107   AU        0.464635    0.322091    0.138090     0.007504
AU108   AU        0.464109    0.356509    0.099789     0.007504
PT109   PT        0.497453    0.320523    0.100285     0.004505
PT110   PT        0.498107    0.358210    0.135441     0.004505
PT111   PT        0.530369    0.322664    0.137086     0.004505
AU112   AU        0.529014    0.356520    0.099952     0.007504
AU113   AU        0.562789    0.323717    0.102264     0.007504
AU114   AU        0.566053    0.359127    0.138009     0.007504
PT115   PT        0.597834    0.321952    0.136495     0.004505
PT116   PT        0.596303    0.357541    0.101962     0.004505
AU117   AU        0.629375    0.358340    0.136971     0.007504
AU118   AU        0.668420    0.321678    0.131750     0.007504
AU119   AU        0.172275    0.429579    0.137117     0.007504
AU120   AU        0.205217    0.396495    0.140482     0.007504
AU121   AU        0.202969    0.433008    0.102772     0.007504
PT122   PT        0.233338    0.395077    0.103097     0.004505
PT123   PT        0.237163    0.428618    0.139302     0.004505
AU124   AU        0.269263    0.394836    0.135937     0.007504
PT125   PT        0.268651    0.431014    0.099799     0.004505
AU126   AU        0.301719    0.396241    0.096971     0.007504
AU127   AU        0.302265    0.429666    0.136066     0.007504
AU128   AU        0.335325    0.394156    0.138072     0.007504
AU129   AU        0.336039    0.427986    0.097870     0.007504
AU130   AU        0.366941    0.392846    0.104749     0.007504
AU131   AU        0.367145    0.428753    0.138962     0.007504
AU132   AU        0.400661    0.394722    0.137628     0.007504
AU133   AU        0.398306    0.428295    0.099236     0.007504
PT134   PT        0.433525    0.392645    0.101453     0.004505
PT135   PT        0.433498    0.431612    0.137093     0.004505
AU136   AU        0.468091    0.396352    0.137069     0.007504
PT137   PT        0.463784    0.427240    0.099606     0.004505
AU138   AU        0.496704    0.391858    0.097942     0.007504
AU139   AU        0.499032    0.429848    0.136400     0.007504
AU140   AU        0.530385    0.392196    0.135301     0.007504
AU141   AU        0.530154    0.428013    0.098155     0.007504
AU142   AU        0.564403    0.391548    0.100765     0.007504
PT143   PT        0.562219    0.428088    0.134878     0.004505
AU144   AU        0.600783    0.393296    0.134757     0.007504
PT145   PT        0.597817    0.426500    0.100707     0.004505
AU146   AU        0.630256    0.391670    0.097943     0.007504
PT147   PT        0.633043    0.427657    0.136487     0.004505
AU148   AU        0.664742    0.395014    0.131448     0.007504
AU149   AU        0.667261    0.427236    0.094874     0.007504
AU150   AU        0.734694    0.460834    0.132427     0.007504
AU151   AU        0.165982    0.499611    0.134260     0.007504
PT152   PT        0.204979    0.465627    0.137020     0.004505
AU153   AU        0.206125    0.500083    0.103423     0.007504
AU154   AU        0.238490    0.463392    0.103959     0.007504
AU155   AU        0.236073    0.501562    0.137945     0.007504
AU156   AU        0.270792    0.464246    0.139384     0.007504
PT157   PT        0.270140    0.499331    0.105690     0.004505
AU158   AU        0.301905    0.464338    0.101088     0.007504
PT159   PT        0.304928    0.499659    0.137768     0.004505
PT160   PT        0.336020    0.462389    0.137158     0.004505
PT161   PT        0.334611    0.499870    0.101804     0.004505
AU162   AU        0.368101    0.462631    0.103712     0.007504
PT163   PT        0.366617    0.500268    0.136998     0.004505
PT164   PT        0.399368    0.462517    0.137149     0.004505
PT165   PT        0.399276    0.498795    0.099185     0.004505
AU166   AU        0.432504    0.464007    0.099524     0.007504
PT167   PT        0.433810    0.499094    0.137787     0.004505
PT168   PT        0.466070    0.464377    0.138103     0.004505
AU169   AU        0.467961    0.499781    0.100816     0.007504
AU170   AU        0.497071    0.462002    0.097708     0.007504
AU171   AU        0.498099    0.500765    0.136245     0.007504
AU172   AU        0.530617    0.466034    0.135891     0.007504
AU173   AU        0.529667    0.495144    0.095946     0.007504
AU174   AU        0.565772    0.465098    0.097240     0.007504
AU175   AU        0.564239    0.500349    0.135832     0.007504
AU176   AU        0.598137    0.462272    0.136997     0.007504
PT177   PT        0.598157    0.499444    0.099115     0.004505
AU178   AU        0.632587    0.463605    0.101258     0.007504
AU179   AU        0.631467    0.498119    0.136382     0.007504
AU180   AU        0.665778    0.463646    0.132753     0.007504
AU181   AU        0.668406    0.496249    0.097753     0.007504
AU182   AU        0.699353    0.496532    0.133169     0.007504
AU183   AU        0.201008    0.536762    0.136203     0.007504
PT184   PT        0.237478    0.535539    0.103338     0.004505
AU185   AU        0.235743    0.569168    0.138133     0.007504
AU186   AU        0.270106    0.534294    0.139727     0.007504
PT187   PT        0.270880    0.570202    0.101935     0.004505
AU188   AU        0.302285    0.534367    0.104130     0.007504
PT189   PT        0.302447    0.570109    0.138079     0.004505
AU190   AU        0.334955    0.535327    0.136460     0.007504
PT191   PT        0.334319    0.569411    0.103652     0.004505
AU192   AU        0.366763    0.535046    0.098779     0.007504
PT193   PT        0.368347    0.570609    0.138928     0.004505
PT194   PT        0.400246    0.535609    0.138058     0.004505
AU195   AU        0.400590    0.567887    0.099498     0.007504
AU196   AU        0.433322    0.534296    0.099261     0.007504
AU197   AU        0.432485    0.570007    0.135916     0.007504
AU198   AU        0.464784    0.535014    0.136250     0.007504
AU199   AU        0.465363    0.570734    0.101736     0.007504
AU200   AU        0.500803    0.533647    0.099778     0.007504
AU201   AU        0.498000    0.569940    0.134206     0.007504
PT202   PT        0.531858    0.534502    0.139178     0.004505
AU203   AU        0.530506    0.569478    0.099240     0.007504
AU204   AU        0.562172    0.531665    0.097397     0.007504
AU205   AU        0.566723    0.567736    0.134384     0.007504
AU206   AU        0.598940    0.532718    0.135413     0.007504
AU207   AU        0.597321    0.566993    0.098245     0.007504
PT208   PT        0.634708    0.533504    0.097990     0.004505
AU209   AU        0.634176    0.566438    0.133046     0.007504
AU210   AU        0.665881    0.533692    0.133027     0.007504
PT211   PT        0.203012    0.603439    0.138126     0.004505
PT212   PT        0.236930    0.639661    0.139192     0.004505
PT213   PT        0.269355    0.604725    0.136551     0.004505
AU214   AU        0.264940    0.644760    0.101287     0.007504
PT215   PT        0.303063    0.605830    0.104414     0.004505
PT216   PT        0.301335    0.638745    0.137826     0.004505
AU217   AU        0.335314    0.604941    0.138944     0.007504
AU218   AU        0.335273    0.641092    0.101537     0.007504
PT219   PT        0.368652    0.605900    0.103395     0.004505
PT220   PT        0.367251    0.640701    0.135505     0.004505
AU221   AU        0.400307    0.604016    0.137034     0.007504
PT222   PT        0.399826    0.639997    0.101651     0.004505
PT223   PT        0.432344    0.604197    0.101852     0.004505
PT224   PT        0.431857    0.640106    0.137577     0.004505
AU225   AU        0.466233    0.607096    0.136588     0.007504
AU226   AU        0.465204    0.642737    0.102559     0.007504
AU227   AU        0.496961    0.605399    0.102580     0.007504
PT228   PT        0.499024    0.643004    0.137031     0.004505
PT229   PT        0.534083    0.601241    0.134378     0.004505
PT230   PT        0.530981    0.637065    0.102979     0.004505
AU231   AU        0.567300    0.605020    0.096951     0.007504
AU232   AU        0.566998    0.638717    0.134045     0.007504
AU233   AU        0.599127    0.605200    0.133539     0.007504
AU234   AU        0.598684    0.640579    0.095348     0.007504
PT235   PT        0.630459    0.637722    0.132655     0.004505
AU236   AU        0.666197    0.600785    0.132297     0.007504
AU237   AU        0.271055    0.675148    0.137575     0.007504
AU238   AU        0.302945    0.712276    0.135291     0.007504
AU239   AU        0.334966    0.674359    0.138970     0.007504
AU240   AU        0.362825    0.679477    0.100843     0.007504
AU241   AU        0.366003    0.709539    0.135246     0.007504
AU242   AU        0.400295    0.676270    0.131848     0.007504
AU243   AU        0.396110    0.714971    0.098385     0.007504
PT244   PT        0.434564    0.679466    0.097942     0.004505
PT245   PT        0.432331    0.714722    0.135589     0.004505
PT246   PT        0.465051    0.679802    0.135592     0.004505
AU247   AU        0.471772    0.710427    0.095098     0.007504
PT248   PT        0.501465    0.673876    0.100528     0.004505
PT249   PT        0.500971    0.709813    0.134269     0.004505
PT250   PT        0.531540    0.674403    0.135568     0.004505
PT251   PT        0.564209    0.714825    0.136053     0.004505
PT252   PT        0.600497    0.676675    0.133427     0.004505
AU253   AU        0.399636    0.749874    0.136401     0.007504
PT254   PT        0.466476    0.745624    0.130986     0.004505
PT255   PT        0.303342    0.143084    0.205697     0.004505
AU256   AU        0.369649    0.144446    0.208405     0.007504
PT257   PT        0.397230    0.107733    0.203260     0.004505
AU258   AU        0.400472    0.144737    0.170414     0.007504
AU259   AU        0.432174    0.145223    0.205845     0.007504
AU260   AU        0.462565    0.109791    0.205956     0.007504
AU261   AU        0.466426    0.142350    0.170988     0.007504
PT262   PT        0.496582    0.143437    0.207212     0.004505
PT263   PT        0.562906    0.140162    0.203173     0.004505
AU264   AU        0.237635    0.218048    0.207726     0.007504
PT265   PT        0.269319    0.178880    0.205480     0.004505
PT266   PT        0.271105    0.216116    0.170923     0.004505
PT267   PT        0.303909    0.180498    0.171808     0.004505
PT268   PT        0.301724    0.214974    0.209242     0.004505
PT269   PT        0.335305    0.180536    0.209217     0.004505
PT270   PT        0.334100    0.217649    0.176961     0.004505
PT271   PT        0.366411    0.179260    0.173594     0.004505
AU272   AU        0.367509    0.216029    0.210731     0.007504
PT273   PT        0.399761    0.181259    0.208876     0.004505
AU274   AU        0.397663    0.212284    0.171457     0.007504
AU275   AU        0.435770    0.177321    0.169948     0.007504
AU276   AU        0.431674    0.214790    0.208759     0.007504
AU277   AU        0.466699    0.178309    0.206744     0.007504
AU278   AU        0.465706    0.215131    0.171944     0.007504
AU279   AU        0.498097    0.181014    0.167600     0.007504
PT280   PT        0.496606    0.215814    0.204231     0.004505
AU281   AU        0.530120    0.179137    0.205966     0.007504
AU282   AU        0.531121    0.215563    0.167832     0.007504
AU283   AU        0.564622    0.179702    0.164341     0.007504
AU284   AU        0.564113    0.215383    0.207671     0.007504
AU285   AU        0.632470    0.184484    0.163398     0.007504
AU286   AU        0.597412    0.217801    0.168102     0.007504
AU287   AU        0.629060    0.212693    0.207689     0.007504
AU288   AU        0.168536    0.289763    0.204771     0.007504
AU289   AU        0.204157    0.250970    0.207846     0.007504
AU290   AU        0.202373    0.289308    0.171385     0.007504
AU291   AU        0.236967    0.252725    0.169642     0.007504
AU292   AU        0.236589    0.289808    0.208609     0.007504
AU293   AU        0.268582    0.255451    0.206119     0.007504
PT294   PT        0.269487    0.291036    0.172989     0.004505
AU295   AU        0.301195    0.251771    0.174001     0.007504
AU296   AU        0.301411    0.287934    0.207344     0.007504
PT297   PT        0.334357    0.255060    0.208393     0.004505
PT298   PT        0.335243    0.289100    0.173578     0.004505
PT299   PT        0.367815    0.252610    0.175480     0.004505
PT300   PT        0.367234    0.290532    0.207419     0.004505
PT301   PT        0.399991    0.252605    0.210492     0.004505
AU302   AU        0.400760    0.288891    0.172679     0.007504
AU303   AU        0.430634    0.247232    0.172225     0.007504
PT304   PT        0.431920    0.288886    0.208498     0.004505
AU305   AU        0.465781    0.251087    0.207392     0.007504
AU306   AU        0.462284    0.285912    0.172146     0.007504
AU307   AU        0.497301    0.250612    0.171152     0.007504
AU308   AU        0.499129    0.285774    0.206349     0.007504
PT309   PT        0.529780    0.250130    0.208481     0.004505
PT310   PT        0.529981    0.286242    0.171500     0.004505
AU311   AU        0.563297    0.248413    0.170825     0.007504
PT312   PT        0.562382    0.287105    0.206508     0.004505
AU313   AU        0.595336    0.250305    0.207309     0.007504
AU314   AU        0.595048    0.283408    0.169933     0.007504
PT315   PT        0.632022    0.252955    0.172496     0.004505
PT316   PT        0.628894    0.286418    0.208011     0.004505
AU317   AU        0.664047    0.253820    0.207972     0.007504
AU318   AU        0.665716    0.284740    0.169232     0.007504
AU319   AU        0.698646    0.288830    0.208154     0.007504
PT320   PT        0.136698    0.325990    0.206844     0.004505
AU321   AU        0.168059    0.326779    0.169125     0.007504
AU322   AU        0.171150    0.360139    0.207274     0.007504
AU323   AU        0.203990    0.325509    0.209641     0.007504
PT324   PT        0.204294    0.360683    0.173592     0.004505
PT325   PT        0.236878    0.323604    0.173370     0.004505
AU326   AU        0.236766    0.360506    0.209168     0.007504
PT327   PT        0.269113    0.324268    0.207718     0.004505
PT328   PT        0.268862    0.360452    0.171154     0.004505
PT329   PT        0.302882    0.322585    0.173155     0.004505
PT330   PT        0.301646    0.357392    0.208287     0.004505
AU331   AU        0.333768    0.324307    0.208028     0.007504
PT332   PT        0.334288    0.358151    0.172309     0.004505
PT333   PT        0.367755    0.324183    0.173274     0.004505
AU334   AU        0.366199    0.358196    0.208006     0.007504
AU335   AU        0.398729    0.324932    0.208024     0.007504
AU336   AU        0.398770    0.359191    0.173035     0.007504
PT337   PT        0.434124    0.325750    0.173735     0.004505
PT338   PT        0.432497    0.359694    0.208468     0.004505
AU339   AU        0.465953    0.324098    0.207836     0.007504
AU340   AU        0.467518    0.358650    0.174489     0.007504
PT341   PT        0.498852    0.321876    0.174066     0.004505
PT342   PT        0.499555    0.358652    0.208651     0.004505
AU343   AU        0.532112    0.324588    0.208159     0.007504
PT344   PT        0.530085    0.360310    0.171998     0.004505
PT345   PT        0.562876    0.322700    0.172630     0.004505
AU346   AU        0.566746    0.359847    0.205418     0.007504
PT347   PT        0.596650    0.320625    0.207432     0.004505
PT348   PT        0.598091    0.360797    0.173252     0.004505
AU349   AU        0.630642    0.322770    0.170391     0.007504
PT350   PT        0.629663    0.357823    0.209239     0.004505
PT351   PT        0.665346    0.324339    0.203914     0.004505
AU352   AU        0.666399    0.360032    0.167171     0.007504
PT353   PT        0.698731    0.323465    0.170329     0.004505
PT354   PT        0.700080    0.362250    0.203289     0.004505
AU355   AU        0.732891    0.324826    0.206199     0.007504
AU356   AU        0.101958    0.428571    0.203859     0.007504
PT357   PT        0.138668    0.394181    0.208755     0.004505
PT358   PT        0.137415    0.432706    0.171123     0.004505
AU359   AU        0.170254    0.393768    0.172422     0.007504
PT360   PT        0.171253    0.430479    0.208988     0.004505
PT361   PT        0.203089    0.395038    0.208367     0.004505
AU362   AU        0.203528    0.430879    0.172182     0.007504
PT363   PT        0.237469    0.395311    0.174200     0.004505
AU364   AU        0.235711    0.429848    0.207224     0.007504
PT365   PT        0.268346    0.395046    0.208587     0.004505
PT366   PT        0.270187    0.429852    0.174390     0.004505
PT367   PT        0.302239    0.396023    0.173039     0.004505
AU368   AU        0.302638    0.429140    0.208414     0.007504
PT369   PT        0.335943    0.393981    0.208678     0.004505
PT370   PT        0.334554    0.431156    0.173554     0.004505
PT371   PT        0.366489    0.395082    0.174015     0.004505
PT372   PT        0.368491    0.430731    0.208993     0.004505
PT373   PT        0.400122    0.393674    0.208480     0.004505
PT374   PT        0.398861    0.427262    0.172074     0.004505
AU375   AU        0.434218    0.394728    0.173753     0.007504
AU376   AU        0.432516    0.429802    0.206849     0.007504
AU377   AU        0.468071    0.394528    0.208237     0.007504
AU378   AU        0.465432    0.430583    0.173383     0.007504
AU379   AU        0.499812    0.396181    0.172076     0.007504
AU380   AU        0.499655    0.429485    0.207519     0.007504
AU381   AU        0.533948    0.393500    0.207514     0.007504
PT382   PT        0.532411    0.429139    0.171590     0.004505
AU383   AU        0.566528    0.393606    0.169728     0.007504
PT384   PT        0.565265    0.427354    0.203907     0.004505
PT385   PT        0.599391    0.395600    0.208365     0.004505
PT386   PT        0.598685    0.428877    0.168892     0.004505
AU387   AU        0.630155    0.394684    0.172032     0.007504
AU388   AU        0.632064    0.431288    0.207995     0.007504
AU389   AU        0.662333    0.392475    0.208123     0.007504
PT390   PT        0.664200    0.429752    0.171963     0.004505
PT391   PT        0.698735    0.357989    0.131695     0.004505
AU392   AU        0.698590    0.431325    0.209379     0.007504
PT393   PT        0.733843    0.398591    0.206868     0.004505
PT394   PT        0.732859    0.430890    0.169866     0.004505
PT395   PT        0.767213    0.432297    0.200974     0.004505
AU396   AU        0.105849    0.499296    0.209172     0.007504
AU397   AU        0.138083    0.463985    0.207339     0.007504
PT398   PT        0.137855    0.497753    0.173791     0.004505
AU399   AU        0.171577    0.465373    0.173430     0.007504
AU400   AU        0.170193    0.499712    0.207606     0.007504
PT401   PT        0.202983    0.464534    0.209107     0.004505
AU402   AU        0.203647    0.500646    0.170894     0.007504
AU403   AU        0.236828    0.465366    0.171515     0.007504
PT404   PT        0.237338    0.498704    0.206239     0.004505
PT405   PT        0.270176    0.464449    0.207739     0.004505
AU406   AU        0.270410    0.499040    0.173057     0.007504
AU407   AU        0.302973    0.465326    0.172354     0.007504
PT408   PT        0.301340    0.500622    0.207431     0.004505
AU409   AU        0.334683    0.465434    0.208482     0.007504
PT410   PT        0.334283    0.498958    0.173964     0.004505
PT411   PT        0.367663    0.464467    0.173007     0.004505
PT412   PT        0.367888    0.499490    0.207918     0.004505
AU413   AU        0.402008    0.464645    0.206266     0.007504
PT414   PT        0.400236    0.500365    0.171389     0.004505
PT415   PT        0.435175    0.465354    0.173650     0.004505
PT416   PT        0.435034    0.499119    0.206378     0.004505
AU417   AU        0.466604    0.465882    0.206925     0.007504
PT418   PT        0.466743    0.500410    0.170383     0.004505
PT419   PT        0.500301    0.462583    0.173502     0.004505
AU420   AU        0.498402    0.499578    0.207039     0.007504
AU421   AU        0.531566    0.464313    0.207622     0.007504
AU422   AU        0.532816    0.498946    0.173630     0.007504
PT423   PT        0.564510    0.464426    0.169744     0.004505
PT424   PT        0.565158    0.500925    0.206759     0.004505
AU425   AU        0.598630    0.465597    0.206978     0.007504
AU426   AU        0.599199    0.499751    0.172199     0.007504
PT427   PT        0.631165    0.465901    0.171236     0.004505
PT428   PT        0.630574    0.502628    0.207478     0.004505
AU429   AU        0.667120    0.464551    0.206078     0.007504
PT430   PT        0.662985    0.500161    0.169005     0.004505
AU431   AU        0.699533    0.463374    0.169550     0.007504
AU432   AU        0.699436    0.497923    0.204459     0.007504
AU433   AU        0.732734    0.464903    0.204972     0.007504
AU434   AU        0.734812    0.498733    0.168506     0.007504
AU435   AU        0.766812    0.501714    0.205427     0.007504
AU436   AU        0.137474    0.536621    0.206390     0.007504
PT437   PT        0.170149    0.531683    0.171730     0.004505
PT438   PT        0.172244    0.569214    0.206596     0.004505
PT439   PT        0.204190    0.534320    0.205398     0.004505
AU440   AU        0.204231    0.570021    0.171866     0.007504
AU441   AU        0.236589    0.534253    0.172471     0.007504
AU442   AU        0.236946    0.568998    0.208344     0.007504
PT443   PT        0.269045    0.533976    0.208622     0.004505
AU444   AU        0.269696    0.569412    0.174516     0.007504
PT445   PT        0.301517    0.534813    0.172955     0.004505
PT446   PT        0.302966    0.569366    0.208800     0.004505
PT447   PT        0.335429    0.533649    0.207330     0.004505
PT448   PT        0.335290    0.569571    0.173278     0.004505
PT449   PT        0.366228    0.534621    0.173885     0.004505
AU450   AU        0.367445    0.569233    0.206630     0.007504
AU451   AU        0.400265    0.534588    0.207467     0.007504
PT452   PT        0.401200    0.568167    0.172879     0.004505
AU453   AU        0.433873    0.534282    0.173675     0.007504
PT454   PT        0.432800    0.570479    0.207910     0.004505
PT455   PT        0.467286    0.535342    0.208513     0.004505
PT456   PT        0.466543    0.569827    0.170762     0.004505
AU457   AU        0.498445    0.536772    0.171601     0.007504
PT458   PT        0.498231    0.569885    0.208538     0.004505
PT459   PT        0.532457    0.534901    0.207949     0.004505
PT460   PT        0.532031    0.571291    0.173843     0.004505
AU461   AU        0.562906    0.536359    0.171510     0.007504
AU462   AU        0.564592    0.571229    0.206365     0.007504
PT463   PT        0.595883    0.534744    0.207728     0.004505
AU464   AU        0.597835    0.568232    0.172222     0.007504
AU465   AU        0.629677    0.533714    0.171174     0.007504
PT466   PT        0.629521    0.569737    0.207424     0.004505
PT467   PT        0.663285    0.536110    0.207958     0.004505
PT468   PT        0.665289    0.566206    0.170642     0.004505
AU469   AU        0.698296    0.533833    0.167894     0.007504
AU470   AU        0.698494    0.571746    0.209889     0.007504
PT471   PT        0.731893    0.535902    0.204729     0.004505
PT472   PT        0.136352    0.605528    0.206839     0.004505
AU473   AU        0.167437    0.604001    0.170380     0.007504
PT474   PT        0.171039    0.639073    0.207857     0.004505
PT475   PT        0.204305    0.602831    0.205615     0.004505
PT476   PT        0.203405    0.640122    0.171790     0.004505
PT477   PT        0.238020    0.604617    0.174157     0.004505
AU478   AU        0.234375    0.641268    0.207492     0.007504
PT479   PT        0.268777    0.604129    0.208899     0.004505
PT480   PT        0.269579    0.640037    0.173726     0.004505
PT481   PT        0.300849    0.605007    0.173016     0.004505
AU482   AU        0.300924    0.639293    0.206474     0.007504
PT483   PT        0.335712    0.604399    0.206475     0.004505
AU484   AU        0.335827    0.639589    0.169949     0.007504
PT485   PT        0.368331    0.604444    0.172266     0.004505
AU486   AU        0.367943    0.639516    0.208379     0.007504
PT487   PT        0.400426    0.603562    0.207265     0.004505
AU488   AU        0.398620    0.640371    0.171452     0.007504
PT489   PT        0.433005    0.604264    0.171047     0.004505
AU490   AU        0.433609    0.639591    0.206363     0.007504
PT491   PT        0.464985    0.604850    0.206737     0.004505
AU492   AU        0.465952    0.640454    0.171219     0.007504
PT493   PT        0.498421    0.604400    0.171416     0.004505
PT494   PT        0.497464    0.639734    0.206820     0.004505
AU495   AU        0.531696    0.606370    0.208722     0.007504
PT496   PT        0.532708    0.638500    0.169554     0.004505
AU497   AU        0.566032    0.603848    0.169398     0.007504
AU498   AU        0.564122    0.640471    0.207640     0.007504
AU499   AU        0.596209    0.606219    0.204805     0.007504
AU500   AU        0.598776    0.639654    0.169980     0.007504
PT501   PT        0.632184    0.602934    0.170458     0.004505
AU502   AU        0.627914    0.640371    0.207743     0.007504
AU503   AU        0.664408    0.605722    0.203857     0.007504
AU504   AU        0.666535    0.638217    0.166837     0.007504
AU505   AU        0.696756    0.601189    0.168810     0.007504
PT506   PT        0.696623    0.638572    0.205102     0.004505
PT507   PT        0.730063    0.603111    0.204486     0.004505
PT508   PT        0.205579    0.673426    0.205453     0.004505
AU509   AU        0.238249    0.675308    0.171850     0.007504
PT510   PT        0.237337    0.709320    0.207592     0.004505
AU511   AU        0.269850    0.674938    0.206790     0.007504
AU512   AU        0.270708    0.710305    0.172022     0.007504
PT513   PT        0.304477    0.674305    0.173615     0.004505
PT514   PT        0.302444    0.710541    0.208743     0.004505
PT515   PT        0.334980    0.673238    0.207540     0.004505
AU516   AU        0.332851    0.713883    0.172820     0.007504
AU517   AU        0.367085    0.677769    0.173533     0.007504
AU518   AU        0.366346    0.710234    0.207486     0.007504
AU519   AU        0.400871    0.674517    0.208456     0.007504
AU520   AU        0.402294    0.712245    0.171206     0.007504
PT521   PT        0.433321    0.676549    0.171976     0.004505
PT522   PT        0.433995    0.711713    0.208667     0.004505
AU523   AU        0.464808    0.676213    0.206159     0.007504
AU524   AU        0.466464    0.714668    0.171744     0.007504
PT525   PT        0.497925    0.675485    0.173226     0.004505
PT526   PT        0.497711    0.710296    0.209438     0.004505
AU527   AU        0.529749    0.676178    0.205678     0.007504
PT528   PT        0.530745    0.710044    0.171111     0.004505
AU529   AU        0.564627    0.674494    0.170554     0.007504
PT530   PT        0.562693    0.712176    0.206615     0.004505
AU531   AU        0.595370    0.676818    0.205525     0.007504
PT532   PT        0.597203    0.712229    0.167618     0.004505
PT533   PT        0.632842    0.672810    0.168691     0.004505
PT534   PT        0.631130    0.708626    0.205617     0.004505
AU535   AU        0.665418    0.673898    0.205763     0.007504
AU536   AU        0.269400    0.746574    0.209909     0.007504
AU537   AU        0.301111    0.747251    0.172505     0.007504
PT538   PT        0.302749    0.783730    0.203673     0.004505
AU539   AU        0.333515    0.746597    0.208740     0.007504
AU540   AU        0.369845    0.745134    0.171063     0.007504
PT541   PT        0.368347    0.780913    0.205926     0.004505
PT542   PT        0.399355    0.746052    0.208286     0.004505
PT543   PT        0.401749    0.783477    0.171580     0.004505
AU544   AU        0.434818    0.745826    0.171645     0.007504
AU545   AU        0.433932    0.785272    0.208729     0.007504
AU546   AU        0.465834    0.747734    0.207861     0.007504
PT547   PT        0.464238    0.782511    0.168624     0.004505
AU548   AU        0.498891    0.745385    0.173836     0.007504
PT549   PT        0.498732    0.783363    0.204999     0.004505
AU550   AU        0.529716    0.747939    0.208245     0.007504
AU551   AU        0.562304    0.748785    0.172622     0.007504
PT552   PT        0.565467    0.781733    0.210713     0.004505
AU553   AU        0.598770    0.748074    0.205587     0.007504
AU554   AU        0.400697    0.818931    0.203343     0.007504
AU555   AU        0.466364    0.818746    0.202845     0.007504
PT556   PT        0.370974    0.071453    0.272209     0.004505
PT557   PT        0.429442    0.072581    0.274592     0.004505
AU558   AU        0.501514    0.072713    0.279006     0.007504
AU559   AU        0.238190    0.139166    0.278634     0.007504
PT560   PT        0.271889    0.103857    0.276711     0.004505
AU561   AU        0.270537    0.144388    0.244635     0.007504
AU562   AU        0.301175    0.143740    0.280164     0.007504
AU563   AU        0.337335    0.106890    0.278287     0.007504
PT564   PT        0.332977    0.143359    0.243720     0.004505
AU565   AU        0.365718    0.109545    0.242019     0.007504
AU566   AU        0.365779    0.143825    0.277623     0.007504
PT567   PT        0.398908    0.111396    0.279251     0.004505
AU568   AU        0.398337    0.146543    0.241974     0.007504
PT569   PT        0.427881    0.108478    0.240593     0.004505
PT570   PT        0.431780    0.145664    0.277805     0.004505
AU571   AU        0.465535    0.109508    0.277504     0.007504
AU572   AU        0.465926    0.142244    0.241183     0.007504
PT573   PT        0.497244    0.107145    0.244600     0.004505
AU574   AU        0.497456    0.145047    0.278083     0.007504
AU575   AU        0.533297    0.108278    0.281770     0.007504
AU576   AU        0.529461    0.142284    0.243732     0.007504
AU577   AU        0.567050    0.145726    0.277681     0.007504
AU578   AU        0.598753    0.107532    0.279783     0.007504
AU579   AU        0.595932    0.139209    0.239893     0.007504
PT580   PT        0.629740    0.144804    0.277334     0.004505
AU581   AU        0.169271    0.215711    0.278066     0.007504
AU582   AU        0.204739    0.179319    0.278736     0.007504
PT583   PT        0.205356    0.215971    0.245068     0.004505
PT584   PT        0.199788    0.140724    0.245715     0.004505
AU585   AU        0.237011    0.218090    0.280322     0.007504
AU586   AU        0.267950    0.181091    0.278715     0.007504
AU587   AU        0.269157    0.218856    0.243599     0.007504
AU588   AU        0.300501    0.182515    0.245029     0.007504
AU589   AU        0.300614    0.217353    0.279042     0.007504
PT590   PT        0.335286    0.179883    0.280237     0.004505
AU591   AU        0.333883    0.219141    0.245158     0.007504
AU592   AU        0.366538    0.180940    0.245355     0.007504
PT593   PT        0.368076    0.218566    0.280782     0.004505
AU594   AU        0.401285    0.183119    0.278905     0.007504
AU595   AU        0.399856    0.215607    0.243573     0.007504
AU596   AU        0.433285    0.178699    0.242375     0.007504
AU597   AU        0.433279    0.218108    0.277735     0.007504
AU598   AU        0.466664    0.182002    0.279288     0.007504
AU599   AU        0.466107    0.214082    0.242897     0.007504
AU600   AU        0.497164    0.178202    0.243747     0.007504
PT601   PT        0.497934    0.218595    0.277621     0.004505
PT602   PT        0.532400    0.182227    0.279044     0.004505
PT603   PT        0.529229    0.213548    0.242022     0.004505
AU604   AU        0.564586    0.179872    0.241158     0.007504
AU605   AU        0.565836    0.216291    0.277330     0.007504
AU606   AU        0.600833    0.180441    0.280215     0.007504
AU607   AU        0.598767    0.215721    0.246299     0.007504
PT608   PT        0.627519    0.175700    0.241199     0.004505
PT609   PT        0.633399    0.216159    0.279190     0.004505
AU610   AU        0.662902    0.178343    0.278214     0.007504
PT611   PT        0.666099    0.213884    0.244382     0.004505
PT612   PT        0.698256    0.216098    0.278739     0.004505
PT613   PT        0.101658    0.278623    0.274343     0.004505
PT614   PT        0.138734    0.249565    0.278723     0.004505
PT615   PT        0.133547    0.285137    0.238915     0.004505
AU616   AU        0.169502    0.254445    0.240976     0.007504
AU617   AU        0.169980    0.285678    0.279402     0.007504
PT618   PT        0.201795    0.252911    0.276862     0.004505
PT619   PT        0.202292    0.290000    0.242939     0.004505
PT620   PT        0.236736    0.253748    0.242670     0.004505
AU621   AU        0.235402    0.289774    0.277612     0.007504
AU622   AU        0.268822    0.254234    0.278755     0.007504
PT623   PT        0.269592    0.289901    0.245208     0.004505
PT624   PT        0.300341    0.255253    0.242286     0.004505
PT625   PT        0.301792    0.287093    0.279712     0.004505
PT626   PT        0.333677    0.253397    0.279431     0.004505
PT627   PT        0.334167    0.289483    0.243214     0.004505
PT628   PT        0.368476    0.252965    0.242727     0.004505
AU629   AU        0.367643    0.287641    0.276305     0.007504
PT630   PT        0.399908    0.252954    0.278684     0.004505
PT631   PT        0.400120    0.289294    0.242889     0.004505
AU632   AU        0.433527    0.252116    0.243387     0.007504
AU633   AU        0.431877    0.289356    0.276379     0.007504
PT634   PT        0.465222    0.252145    0.278828     0.004505
AU635   AU        0.466042    0.287246    0.243536     0.007504
AU636   AU        0.497840    0.251852    0.242438     0.007504
AU637   AU        0.497369    0.288307    0.277603     0.007504
AU638   AU        0.529961    0.254938    0.278151     0.007504
PT639   PT        0.531761    0.290671    0.242881     0.004505
PT640   PT        0.564179    0.253039    0.245114     0.004505
PT641   PT        0.565272    0.288638    0.278718     0.004505
AU642   AU        0.598775    0.254531    0.278824     0.007504
PT643   PT        0.596706    0.288090    0.243903     0.004505
AU644   AU        0.632318    0.250507    0.243134     0.007504
PT645   PT        0.631943    0.287669    0.278701     0.004505
AU646   AU        0.666887    0.251933    0.278564     0.007504
AU647   AU        0.663890    0.290498    0.241037     0.007504
PT648   PT        0.701464    0.247940    0.242820     0.004505
AU649   AU        0.699360    0.287074    0.275822     0.007504
AU650   AU        0.793778    0.198077    0.310353     0.007504
AU651   AU        0.735799    0.286565    0.240533     0.007504
AU652   AU        0.770084    0.289305    0.277300     0.007504
AU653   AU        0.106281    0.359067    0.277890     0.007504
PT654   PT        0.138466    0.326577    0.279442     0.004505
PT655   PT        0.140397    0.360101    0.244334     0.004505
AU656   AU        0.169843    0.323452    0.241804     0.007504
PT657   PT        0.172423    0.358990    0.277489     0.004505
PT658   PT        0.202987    0.325171    0.278382     0.004505
PT659   PT        0.202716    0.359597    0.243342     0.004505
PT660   PT        0.236759    0.326614    0.244384     0.004505
PT661   PT        0.236796    0.359897    0.277867     0.004505
PT662   PT        0.270176    0.324435    0.277867     0.004505
PT663   PT        0.269929    0.359772    0.243496     0.004505
AU664   AU        0.301417    0.324035    0.243101     0.007504
PT665   PT        0.301770    0.359922    0.278768     0.004505
AU666   AU        0.333969    0.323394    0.277904     0.007504
PT667   PT        0.334356    0.360345    0.241801     0.004505
AU668   AU        0.367283    0.324093    0.242974     0.007504
AU669   AU        0.366255    0.359713    0.277506     0.007504
PT670   PT        0.400189    0.325317    0.278067     0.004505
PT671   PT        0.399544    0.358930    0.243647     0.004505
PT672   PT        0.433758    0.325278    0.242786     0.004505
AU673   AU        0.433106    0.359971    0.278002     0.007504
PT674   PT        0.465724    0.325006    0.277812     0.004505
PT675   PT        0.464794    0.359813    0.242156     0.004505
AU676   AU        0.497682    0.321280    0.241277     0.007504
AU677   AU        0.497638    0.357879    0.277444     0.007504
PT678   PT        0.531085    0.322868    0.278573     0.004505
AU679   AU        0.531774    0.359442    0.240878     0.007504
PT680   PT        0.565185    0.325461    0.241673     0.004505
PT681   PT        0.563843    0.358500    0.276627     0.004505
AU682   AU        0.597877    0.322373    0.277657     0.007504
AU683   AU        0.597615    0.361309    0.243546     0.007504
PT684   PT        0.628098    0.323643    0.241563     0.004505
PT685   PT        0.630908    0.361314    0.279920     0.004505
PT686   PT        0.665981    0.320898    0.279768     0.004505
AU687   AU        0.662197    0.360769    0.244547     0.007504
AU688   AU        0.698193    0.325738    0.241495     0.007504
AU689   AU        0.696493    0.358483    0.279823     0.007504
AU690   AU        0.730691    0.323631    0.272987     0.007504
AU691   AU        0.733162    0.361994    0.243755     0.007504
AU692   AU        0.765051    0.362210    0.277776     0.007504
PT693   PT        0.071737    0.393794    0.278731     0.004505
PT694   PT        0.106134    0.396415    0.244899     0.004505
AU695   AU        0.104977    0.431696    0.278976     0.007504
PT696   PT        0.140026    0.396443    0.278762     0.004505
AU697   AU        0.138846    0.430588    0.242457     0.007504
PT698   PT        0.171557    0.395840    0.244795     0.004505
PT699   PT        0.171501    0.429498    0.279486     0.004505
PT700   PT        0.205314    0.394916    0.277445     0.004505
PT701   PT        0.204733    0.429606    0.243475     0.004505
AU702   AU        0.236455    0.394887    0.242031     0.007504
PT703   PT        0.236571    0.430301    0.279211     0.004505
PT704   PT        0.270396    0.394379    0.276927     0.004505
PT705   PT        0.268788    0.429465    0.243109     0.004505
AU706   AU        0.303524    0.395012    0.242248     0.007504
PT707   PT        0.301368    0.430120    0.277349     0.004505
AU708   AU        0.334614    0.394192    0.278454     0.007504
AU709   AU        0.335332    0.430964    0.243015     0.007504
PT710   PT        0.366397    0.395000    0.242252     0.004505
AU711   AU        0.367751    0.429083    0.276256     0.007504
PT712   PT        0.400232    0.394188    0.278106     0.004505
PT713   PT        0.400651    0.429196    0.241712     0.004505
PT714   PT        0.432455    0.391823    0.243663     0.004505
PT715   PT        0.432366    0.428019    0.277230     0.004505
PT716   PT        0.466552    0.394607    0.278797     0.004505
PT717   PT        0.465551    0.429378    0.242384     0.004505
PT718   PT        0.500167    0.393221    0.242405     0.004505
PT719   PT        0.498487    0.430567    0.277648     0.004505
AU720   AU        0.531521    0.393267    0.278735     0.007504
PT721   PT        0.531715    0.430455    0.242668     0.004505
PT722   PT        0.564841    0.395553    0.243115     0.004505
PT723   PT        0.562338    0.428375    0.278293     0.004505
PT724   PT        0.596912    0.396232    0.277076     0.004505
AU725   AU        0.597349    0.431633    0.244731     0.007504
AU726   AU        0.630349    0.396562    0.243746     0.007504
PT727   PT        0.628826    0.431413    0.278636     0.004505
PT728   PT        0.664776    0.397233    0.278345     0.004505
AU729   AU        0.664362    0.430365    0.243335     0.007504
AU730   AU        0.699145    0.393973    0.244330     0.007504
PT731   PT        0.697692    0.431638    0.277793     0.004505
AU732   AU        0.733652    0.396778    0.276211     0.007504
AU733   AU        0.732050    0.432217    0.242664     0.007504
AU734   AU        0.766433    0.399214    0.241339     0.007504
AU735   AU        0.766958    0.432529    0.275257     0.007504
AU736   AU        0.798648    0.396451    0.276049     0.007504
AU737   AU        0.068523    0.462000    0.273247     0.007504
AU738   AU        0.104084    0.462848    0.240755     0.007504
AU739   AU        0.099886    0.498411    0.277676     0.007504
AU740   AU        0.136925    0.466049    0.278601     0.007504
AU741   AU        0.139512    0.500225    0.243525     0.007504
PT742   PT        0.170302    0.464965    0.244739     0.004505
AU743   AU        0.172174    0.501274    0.277919     0.007504
AU744   AU        0.202815    0.465342    0.278012     0.007504
PT745   PT        0.202711    0.500198    0.243002     0.004505
PT746   PT        0.238417    0.465135    0.244069     0.004505
AU747   AU        0.235681    0.501249    0.279909     0.007504
PT748   PT        0.269454    0.465489    0.277395     0.004505
PT749   PT        0.269803    0.499213    0.242342     0.004505
AU750   AU        0.301465    0.466324    0.242103     0.007504
PT751   PT        0.302080    0.500991    0.277040     0.004505
PT752   PT        0.333849    0.464484    0.278114     0.004505
PT753   PT        0.335720    0.500102    0.242800     0.004505
AU754   AU        0.366111    0.465151    0.243111     0.007504
PT755   PT        0.368293    0.499895    0.279073     0.004505
PT756   PT        0.400107    0.463467    0.278849     0.004505
PT757   PT        0.400837    0.501319    0.242230     0.004505
PT758   PT        0.433333    0.464033    0.242300     0.004505
AU759   AU        0.433007    0.500781    0.278309     0.007504
PT760   PT        0.463867    0.464491    0.278529     0.004505
AU761   AU        0.465025    0.500010    0.244150     0.007504
PT762   PT        0.498275    0.464564    0.243433     0.004505
AU763   AU        0.498105    0.498822    0.277318     0.007504
PT764   PT        0.531681    0.465642    0.279673     0.004505
PT765   PT        0.530287    0.500585    0.243794     0.004505
AU766   AU        0.563494    0.463951    0.241377     0.007504
PT767   PT        0.563610    0.500995    0.276967     0.004505
PT768   PT        0.597601    0.466599    0.278945     0.004505
PT769   PT        0.596865    0.499552    0.242443     0.004505
AU770   AU        0.633410    0.466527    0.243018     0.007504
AU771   AU        0.629184    0.499072    0.279418     0.007504
AU772   AU        0.664792    0.465876    0.277568     0.007504
PT773   PT        0.665262    0.499215    0.241833     0.004505
PT774   PT        0.698499    0.466989    0.243276     0.004505
PT775   PT        0.696697    0.501719    0.278385     0.004505
PT776   PT        0.731389    0.464248    0.277373     0.004505
AU777   AU        0.732260    0.501428    0.241600     0.007504
PT778   PT        0.767939    0.463157    0.239385     0.004505
PT779   PT        0.763958    0.500817    0.276450     0.004505
AU780   AU        0.803515    0.466019    0.278785     0.007504
PT781   PT        0.066216    0.538449    0.274726     0.004505
AU782   AU        0.105202    0.534450    0.242494     0.007504
AU783   AU        0.102231    0.568363    0.276647     0.007504
AU784   AU        0.137807    0.534599    0.277129     0.007504
PT785   PT        0.137742    0.568821    0.242884     0.004505
AU786   AU        0.171462    0.535438    0.241829     0.007504
AU787   AU        0.171950    0.568936    0.278775     0.007504
PT788   PT        0.205032    0.535362    0.278523     0.004505
PT789   PT        0.204179    0.568756    0.241099     0.004505
PT790   PT        0.235451    0.533698    0.242264     0.004505
AU791   AU        0.236348    0.570210    0.277393     0.007504
AU792   AU        0.268733    0.534007    0.277323     0.007504
PT793   PT        0.268126    0.570923    0.242458     0.004505
AU794   AU        0.303462    0.534919    0.241270     0.007504
PT795   PT        0.301141    0.569068    0.277574     0.004505
PT796   PT        0.336331    0.534648    0.277468     0.004505
PT797   PT        0.336728    0.569212    0.242482     0.004505
AU798   AU        0.368555    0.535011    0.241023     0.007504
PT799   PT        0.368772    0.569068    0.276502     0.004505
PT800   PT        0.401655    0.535914    0.277643     0.004505
PT801   PT        0.401011    0.570090    0.241363     0.004505
PT802   PT        0.433499    0.535031    0.243838     0.004505
PT803   PT        0.432529    0.570921    0.276689     0.004505
AU804   AU        0.466247    0.534795    0.278970     0.007504
PT805   PT        0.464551    0.568800    0.244337     0.004505
AU806   AU        0.498723    0.534137    0.243797     0.007504
PT807   PT        0.497660    0.569889    0.277556     0.004505
AU808   AU        0.531224    0.534440    0.277334     0.007504
PT809   PT        0.530726    0.569449    0.242320     0.004505
AU810   AU        0.563914    0.535230    0.242654     0.007504
AU811   AU        0.563061    0.569338    0.277679     0.007504
AU812   AU        0.596693    0.536365    0.279690     0.007504
PT813   PT        0.596914    0.569691    0.242224     0.004505
PT814   PT        0.627945    0.536112    0.244137     0.004505
AU815   AU        0.629637    0.571695    0.278390     0.007504
AU816   AU        0.662552    0.534616    0.277454     0.007504
PT817   PT        0.662841    0.570613    0.243658     0.004505
AU818   AU        0.699894    0.533343    0.243185     0.007504
PT819   PT        0.698274    0.569664    0.278288     0.004505
AU820   AU        0.733163    0.534900    0.278169     0.007504
AU821   AU        0.731216    0.569309    0.244692     0.007504
PT822   PT        0.765019    0.536192    0.241365     0.004505
PT823   PT        0.766478    0.572527    0.277167     0.004505
PT824   PT        0.798491    0.535764    0.273147     0.004505
AU825   AU        0.100230    0.642924    0.279988     0.007504
AU826   AU        0.140226    0.605162    0.277999     0.007504
AU827   AU        0.137402    0.640021    0.244328     0.007504
PT828   PT        0.170976    0.604836    0.241395     0.004505
PT829   PT        0.172075    0.641954    0.278468     0.004505
PT830   PT        0.202901    0.603825    0.277625     0.004505
AU831   AU        0.204560    0.641486    0.243287     0.007504
AU832   AU        0.236691    0.604048    0.241988     0.007504
PT833   PT        0.236518    0.639161    0.277133     0.004505
PT834   PT        0.270486    0.604401    0.277519     0.004505
PT835   PT        0.269606    0.638179    0.242786     0.004505
PT836   PT        0.302980    0.603929    0.242532     0.004505
AU837   AU        0.300801    0.639760    0.276624     0.007504
PT838   PT        0.334959    0.605279    0.277330     0.004505
PT839   PT        0.335402    0.640676    0.242667     0.004505
AU840   AU        0.368084    0.604682    0.242610     0.007504
PT841   PT        0.368245    0.639909    0.278001     0.004505
PT842   PT        0.400220    0.604553    0.276737     0.004505
AU843   AU        0.400823    0.639726    0.242677     0.007504
AU844   AU        0.432499    0.604490    0.242995     0.007504
AU845   AU        0.432822    0.639552    0.278346     0.007504
PT846   PT        0.464860    0.605118    0.278084     0.004505
AU847   AU        0.465101    0.640589    0.241878     0.007504
AU848   AU        0.497855    0.606573    0.242090     0.007504
PT849   PT        0.499519    0.638961    0.278646     0.004505
AU850   AU        0.530823    0.604865    0.277454     0.007504
PT851   PT        0.531067    0.642096    0.241261     0.004505
AU852   AU        0.564647    0.605782    0.240536     0.007504
AU853   AU        0.562316    0.639175    0.276840     0.007504
AU854   AU        0.596353    0.604957    0.279218     0.007504
PT855   PT        0.596757    0.640886    0.244195     0.004505
AU856   AU        0.627945    0.603838    0.242267     0.007504
PT857   PT        0.627848    0.641735    0.279245     0.004505
PT858   PT        0.662219    0.606343    0.279936     0.004505
AU859   AU        0.661605    0.639408    0.242509     0.007504
PT860   PT        0.696300    0.606542    0.244406     0.004505
PT861   PT        0.699294    0.641302    0.278803     0.004505
AU862   AU        0.733377    0.605489    0.276527     0.007504
AU863   AU        0.732573    0.640272    0.240252     0.007504
AU864   AU        0.766305    0.637310    0.275280     0.007504
AU865   AU        0.135211    0.675959    0.275015     0.007504
PT866   PT        0.172126    0.672566    0.242086     0.004505
PT867   PT        0.170124    0.709254    0.273785     0.004505
AU868   AU        0.205001    0.676239    0.276772     0.007504
AU869   AU        0.203315    0.708881    0.239933     0.007504
AU870   AU        0.236766    0.675190    0.244571     0.007504
PT871   PT        0.237236    0.712326    0.277722     0.004505
AU872   AU        0.270418    0.675460    0.278170     0.007504
PT873   PT        0.269940    0.711595    0.243254     0.004505
PT874   PT        0.300681    0.672727    0.242932     0.004505
PT875   PT        0.302513    0.709632    0.277468     0.004505
AU876   AU        0.333801    0.676156    0.278106     0.007504
PT877   PT        0.333356    0.708682    0.242140     0.004505
PT878   PT        0.367107    0.674841    0.241943     0.004505
PT879   PT        0.367478    0.709835    0.277259     0.004505
PT880   PT        0.400826    0.675679    0.278876     0.004505
AU881   AU        0.400287    0.709035    0.241567     0.007504
PT882   PT        0.432095    0.673042    0.242133     0.004505
AU883   AU        0.431349    0.710815    0.277015     0.007504
PT884   PT        0.464597    0.673920    0.276323     0.004505
AU885   AU        0.464694    0.709726    0.243318     0.007504
AU886   AU        0.495390    0.675160    0.242417     0.007504
AU887   AU        0.497948    0.708535    0.277670     0.007504
PT888   PT        0.531145    0.674161    0.279143     0.004505
AU889   AU        0.531400    0.710353    0.243232     0.007504
AU890   AU        0.565466    0.674699    0.244822     0.007504
PT891   PT        0.563366    0.710476    0.278815     0.004505
AU892   AU        0.596518    0.675935    0.277656     0.007504
AU893   AU        0.597112    0.711419    0.242342     0.007504
AU894   AU        0.629152    0.675618    0.242234     0.007504
AU895   AU        0.631716    0.710477    0.277358     0.007504
PT896   PT        0.662194    0.674023    0.275993     0.004505
AU897   AU        0.665238    0.708812    0.241302     0.007504
AU898   AU        0.700280    0.673827    0.240728     0.007504
AU899   AU        0.698698    0.710654    0.274627     0.007504
PT900   PT        0.733677    0.676322    0.277137     0.004505
AU901   AU        0.201394    0.745251    0.274906     0.007504
AU902   AU        0.234540    0.747475    0.239565     0.007504
AU903   AU        0.234393    0.782715    0.276085     0.007504
AU904   AU        0.269404    0.747990    0.275821     0.007504
AU905   AU        0.269374    0.784069    0.239476     0.007504
AU906   AU        0.301979    0.747979    0.242941     0.007504
PT907   PT        0.302681    0.781930    0.276254     0.004505
AU908   AU        0.333935    0.745408    0.277932     0.007504
PT909   PT        0.336749    0.781736    0.244529     0.004505
PT910   PT        0.367947    0.745326    0.241895     0.004505
AU911   AU        0.368667    0.782068    0.278858     0.007504
AU912   AU        0.401578    0.746148    0.276994     0.007504
AU913   AU        0.401237    0.786432    0.241889     0.007504
AU914   AU        0.433477    0.749076    0.241058     0.007504
AU915   AU        0.433209    0.781037    0.276289     0.007504
PT916   PT        0.465902    0.744945    0.277121     0.004505
AU917   AU        0.466424    0.784234    0.241978     0.007504
AU918   AU        0.497422    0.745779    0.242638     0.007504
AU919   AU        0.497202    0.782219    0.277491     0.007504
PT920   PT        0.530680    0.745968    0.278081     0.004505
AU921   AU        0.530152    0.780778    0.243035     0.007504
PT922   PT        0.564841    0.746252    0.244143     0.004505
AU923   AU        0.563140    0.785367    0.277731     0.007504
PT924   PT        0.596843    0.748314    0.278500     0.004505
PT925   PT        0.599540    0.783766    0.242207     0.004505
AU926   AU        0.632130    0.746925    0.241482     0.007504
AU927   AU        0.632208    0.781709    0.278668     0.007504
AU928   AU        0.666333    0.745172    0.279251     0.007504
PT929   PT        0.268894    0.817660    0.278700     0.004505
AU930   AU        0.335890    0.819871    0.278233     0.007504
AU931   AU        0.366479    0.819225    0.240555     0.007504
AU932   AU        0.367500    0.852536    0.273877     0.007504
AU933   AU        0.401532    0.817817    0.276598     0.007504
PT934   PT        0.434398    0.821519    0.241589     0.004505
AU935   AU        0.430538    0.854280    0.278425     0.007504
AU936   AU        0.466360    0.819174    0.277618     0.007504
PT937   PT        0.499475    0.820173    0.241995     0.004505
PT938   PT        0.501568    0.858000    0.279972     0.004505
AU939   AU        0.529993    0.819363    0.277147     0.007504
AU940   AU        0.598025    0.818695    0.278159     0.007504
AU941   AU        0.303077    0.073733    0.349889     0.007504
AU942   AU        0.338157    0.035899    0.348954     0.007504
PT943   PT        0.369701    0.071985    0.346055     0.004505
AU944   AU        0.400363    0.071336    0.311451     0.007504
AU945   AU        0.434818    0.070768    0.350157     0.007504
PT946   PT        0.464945    0.072140    0.310650     0.004505
PT947   PT        0.497979    0.071542    0.347538     0.004505
AU948   AU        0.532357    0.072047    0.315084     0.007504
PT949   PT        0.563330    0.073465    0.348204     0.004505
AU950   AU        0.201324    0.141279    0.311820     0.007504
PT951   PT        0.235514    0.146028    0.347719     0.004505
AU952   AU        0.269406    0.108144    0.349952     0.007504
AU953   AU        0.269466    0.140566    0.312118     0.007504
AU954   AU        0.302602    0.107474    0.313014     0.007504
PT955   PT        0.302491    0.143341    0.348585     0.004505
AU956   AU        0.337415    0.109350    0.348639     0.007504
PT957   PT        0.334931    0.144075    0.314668     0.004505
PT958   PT        0.369656    0.109017    0.314087     0.004505
AU959   AU        0.369171    0.144982    0.349931     0.007504
AU960   AU        0.400505    0.109583    0.348659     0.007504
AU961   AU        0.401336    0.146668    0.313721     0.007504
AU962   AU        0.431993    0.107263    0.311977     0.007504
PT963   PT        0.431996    0.147002    0.348633     0.004505
AU964   AU        0.464863    0.107471    0.348421     0.007504
AU965   AU        0.466711    0.145226    0.313575     0.007504
AU966   AU        0.499219    0.110346    0.313905     0.007504
AU967   AU        0.500207    0.146877    0.346882     0.007504
AU968   AU        0.533185    0.112669    0.348714     0.007504
AU969   AU        0.530188    0.147749    0.311717     0.007504
AU970   AU        0.565290    0.112660    0.314911     0.007504
AU971   AU        0.564677    0.146871    0.349708     0.007504
AU972   AU        0.597202    0.107146    0.350606     0.007504
PT973   PT        0.599603    0.145553    0.315847     0.004505
PT974   PT        0.633119    0.145547    0.350055     0.004505
AU975   AU        0.662939    0.142687    0.311640     0.007504
AU976   AU        0.134017    0.213980    0.315678     0.007504
AU977   AU        0.171120    0.178493    0.314451     0.007504
AU978   AU        0.170140    0.215620    0.348903     0.007504
PT979   PT        0.202786    0.181969    0.350989     0.004505
AU980   AU        0.204279    0.214394    0.314774     0.007504
PT981   PT        0.237107    0.178432    0.312750     0.004505
PT982   PT        0.235468    0.218555    0.350909     0.004505
AU983   AU        0.267016    0.180775    0.352054     0.007504
PT984   PT        0.268691    0.216612    0.317393     0.004505
AU985   AU        0.301375    0.181463    0.313618     0.007504
AU986   AU        0.302608    0.217838    0.347626     0.007504
PT987   PT        0.335059    0.185173    0.349272     0.004505
AU988   AU        0.335410    0.217597    0.314088     0.007504
AU989   AU        0.367090    0.179792    0.314418     0.007504
PT990   PT        0.367119    0.218268    0.349055     0.004505
AU991   AU        0.399111    0.181126    0.348324     0.007504
AU992   AU        0.400130    0.217849    0.314194     0.007504
PT993   PT        0.433867    0.183334    0.313227     0.004505
AU994   AU        0.432754    0.219124    0.347905     0.007504
PT995   PT        0.467467    0.183082    0.347422     0.004505
AU996   AU        0.465744    0.218247    0.313290     0.007504
PT997   PT        0.498987    0.181493    0.312716     0.004505
AU998   AU        0.499823    0.219552    0.348417     0.007504
AU999   AU        0.531227    0.182289    0.350036     0.007504
AU1000   AU        0.531060    0.218388    0.313822     0.007504
PT1001   PT        0.564019    0.183614    0.314160     0.004505
AU1002   AU        0.565734    0.217531    0.351679     0.007504
PT1003   PT        0.598521    0.182195    0.351204     0.004505
PT1004   PT        0.596851    0.218197    0.311570     0.004505
AU1005   AU        0.629811    0.182570    0.314576     0.007504
PT1006   PT        0.630473    0.216141    0.350215     0.004505
PT1007   PT        0.666105    0.179850    0.348097     0.004505
AU1008   AU        0.664091    0.213198    0.314121     0.007504
PT1009   PT        0.698879    0.177482    0.313301     0.004505
PT1010   PT        0.699407    0.214984    0.348880     0.004505
AU1011   AU        0.732354    0.214290    0.312629     0.007504
PT1012   PT        0.102831    0.250499    0.312981     0.004505
AU1013   AU        0.136969    0.254235    0.345587     0.007504
AU1014   AU        0.134976    0.289375    0.311738     0.007504
AU1015   AU        0.171523    0.249018    0.314308     0.007504
AU1016   AU        0.170935    0.287949    0.347644     0.007504
AU1017   AU        0.204231    0.254556    0.348376     0.007504
PT1018   PT        0.203843    0.291969    0.314630     0.004505
AU1019   AU        0.235914    0.254242    0.312762     0.007504
PT1020   PT        0.238287    0.289345    0.347189     0.004505
AU1021   AU        0.269459    0.254354    0.346627     0.007504
PT1022   PT        0.269310    0.289484    0.312848     0.004505
PT1023   PT        0.302706    0.254573    0.313430     0.004505
PT1024   PT        0.302032    0.289193    0.347451     0.004505
PT1025   PT        0.335491    0.254931    0.348922     0.004505
PT1026   PT        0.336226    0.290410    0.313557     0.004505
AU1027   AU        0.366206    0.254524    0.313676     0.007504
PT1028   PT        0.366142    0.290181    0.348408     0.004505
PT1029   PT        0.399266    0.253677    0.347958     0.004505
AU1030   AU        0.399511    0.290202    0.313311     0.007504
PT1031   PT        0.433242    0.254074    0.312719     0.004505
PT1032   PT        0.431994    0.287998    0.347713     0.004505
AU1033   AU        0.466897    0.254182    0.349809     0.007504
AU1034   AU        0.466430    0.289665    0.312548     0.007504
PT1035   PT        0.498028    0.254581    0.312789     0.004505
PT1036   PT        0.498542    0.291277    0.349470     0.004505
PT1037   PT        0.530320    0.253729    0.349063     0.004505
AU1038   AU        0.530457    0.290408    0.312241     0.007504
PT1039   PT        0.563377    0.252113    0.310956     0.004505
AU1040   AU        0.563488    0.288320    0.346202     0.007504
PT1041   PT        0.596252    0.252169    0.348550     0.004505
AU1042   AU        0.598552    0.287365    0.315593     0.007504
PT1043   PT        0.631630    0.249985    0.315041     0.004505
AU1044   AU        0.628265    0.289011    0.347690     0.007504
PT1045   PT        0.664385    0.254401    0.349207     0.004505
AU1046   AU        0.665683    0.285598    0.312425     0.007504
PT1047   PT        0.697705    0.249191    0.313921     0.004505
AU1048   AU        0.701080    0.287997    0.345896     0.007504
AU1049   AU        0.730331    0.250573    0.348920     0.007504
AU1050   AU        0.731025    0.285164    0.308856     0.007504
PT1051   PT        0.760029    0.289005    0.349301     0.004505
PT1052   PT        0.038562    0.363104    0.342127     0.004505
AU1053   AU        0.073721    0.359433    0.313521     0.007504
AU1054   AU        0.102223    0.321997    0.310846     0.007504
PT1055   PT        0.106720    0.360105    0.347563     0.004505
AU1056   AU        0.138097    0.325281    0.347440     0.007504
AU1057   AU        0.138415    0.361879    0.312393     0.007504
PT1058   PT        0.172041    0.325557    0.313570     0.004505
AU1059   AU        0.170912    0.361685    0.348669     0.007504
PT1060   PT        0.205759    0.325784    0.347623     0.004505
AU1061   AU        0.204266    0.362423    0.313087     0.007504
PT1062   PT        0.238278    0.324605    0.312379     0.004505
AU1063   AU        0.238413    0.358644    0.347969     0.007504
AU1064   AU        0.270947    0.323761    0.348423     0.007504
AU1065   AU        0.269264    0.359125    0.313317     0.007504
PT1066   PT        0.301394    0.324364    0.311553     0.004505
PT1067   PT        0.302002    0.359511    0.347166     0.004505
AU1068   AU        0.334427    0.324376    0.346870     0.007504
PT1069   PT        0.334961    0.358985    0.314063     0.004505
PT1070   PT        0.367273    0.324912    0.313328     0.004505
PT1071   PT        0.367630    0.359876    0.349080     0.004505
PT1072   PT        0.399571    0.325625    0.348397     0.004505
AU1073   AU        0.400055    0.359120    0.313448     0.007504
PT1074   PT        0.433308    0.323825    0.311860     0.004505
PT1075   PT        0.432407    0.359494    0.347706     0.004505
PT1076   PT        0.464808    0.323974    0.347780     0.004505
PT1077   PT        0.464080    0.358083    0.313968     0.004505
PT1078   PT        0.498790    0.323813    0.314006     0.004505
AU1079   AU        0.499821    0.359720    0.346120     0.007504
AU1080   AU        0.531075    0.323406    0.347014     0.007504
AU1081   AU        0.531240    0.358662    0.312885     0.007504
AU1082   AU        0.565786    0.322396    0.313872     0.007504
AU1083   AU        0.562993    0.360651    0.348936     0.007504
PT1084   PT        0.597047    0.324986    0.350363     0.004505
PT1085   PT        0.596393    0.359794    0.313226     0.004505
PT1086   PT        0.629083    0.325061    0.312851     0.004505
AU1087   AU        0.628845    0.360094    0.346760     0.007504
PT1088   PT        0.663018    0.321985    0.347433     0.004505
PT1089   PT        0.662413    0.360077    0.315666     0.004505
AU1090   AU        0.701504    0.323610    0.312571     0.007504
PT1091   PT        0.696834    0.358519    0.349162     0.004505
AU1092   AU        0.731850    0.325158    0.347521     0.007504
PT1093   PT        0.729795    0.363307    0.311391     0.004505
AU1094   AU        0.761843    0.326004    0.312196     0.007504
AU1095   AU        0.764765    0.360909    0.345324     0.007504
AU1096   AU        0.794908    0.322827    0.347210     0.007504
AU1097   AU        0.798684    0.359978    0.310892     0.007504
PT1098   PT        0.074910    0.394800    0.350368     0.004505
AU1099   AU        0.073902    0.429360    0.314887     0.007504
PT1100   PT        0.104686    0.394291    0.314946     0.004505
PT1101   PT        0.106860    0.428948    0.347782     0.004505
AU1102   AU        0.139816    0.395919    0.348545     0.007504
PT1103   PT        0.139582    0.429476    0.313878     0.004505
PT1104   PT        0.172624    0.396213    0.313131     0.004505
AU1105   AU        0.171803    0.429386    0.349136     0.007504
PT1106   PT        0.204427    0.395262    0.348629     0.004505
PT1107   PT        0.203773    0.429063    0.312962     0.004505
PT1108   PT        0.238367    0.396061    0.313352     0.004505
PT1109   PT        0.236546    0.430273    0.348260     0.004505
AU1110   AU        0.269876    0.393409    0.349310     0.007504
PT1111   PT        0.269420    0.431041    0.314139     0.004505
PT1112   PT        0.300695    0.394669    0.313894     0.004505
PT1113   PT        0.303776    0.430696    0.347431     0.004505
PT1114   PT        0.335338    0.395793    0.348609     0.004505
PT1115   PT        0.334748    0.429842    0.312418     0.004505
AU1116   AU        0.367055    0.395140    0.313651     0.007504
PT1117   PT        0.367918    0.430506    0.347547     0.004505
PT1118   PT        0.399137    0.394317    0.348306     0.004505
PT1119   PT        0.399310    0.428956    0.313388     0.004505
PT1120   PT        0.431112    0.394317    0.312788     0.004505
PT1121   PT        0.431879    0.430938    0.347873     0.004505
PT1122   PT        0.466667    0.395214    0.346426     0.004505
PT1123   PT        0.464149    0.430196    0.313087     0.004505
PT1124   PT        0.499191    0.395362    0.312424     0.004505
PT1125   PT        0.498199    0.428605    0.347962     0.004505
PT1126   PT        0.530788    0.394007    0.346285     0.004505
PT1127   PT        0.531914    0.429947    0.311690     0.004505
AU1128   AU        0.564068    0.393723    0.314498     0.007504
AU1129   AU        0.565062    0.429890    0.346593     0.007504
PT1130   PT        0.596898    0.394952    0.348624     0.004505
PT1131   PT        0.594457    0.430194    0.312637     0.004505
AU1132   AU        0.630097    0.397112    0.314187     0.007504
PT1133   PT        0.627827    0.430605    0.348572     0.004505
AU1134   AU        0.662575    0.396370    0.348412     0.007504
AU1135   AU        0.661958    0.431763    0.311056     0.007504
PT1136   PT        0.695295    0.396300    0.315640     0.004505
AU1137   AU        0.696414    0.428592    0.350122     0.007504
AU1138   AU        0.730080    0.394965    0.349826     0.007504
PT1139   PT        0.732544    0.431321    0.313137     0.004505
AU1140   AU        0.766605    0.399243    0.311536     0.007504
AU1141   AU        0.763132    0.429651    0.350381     0.007504
PT1142   PT        0.800033    0.390603    0.351631     0.004505
PT1143   PT        0.799586    0.429306    0.313724     0.004505
PT1144   PT        0.073339    0.465576    0.349221     0.004505
PT1145   PT        0.070799    0.498397    0.309544     0.004505
PT1146   PT        0.104382    0.466235    0.312756     0.004505
PT1147   PT        0.106649    0.500162    0.348750     0.004505
PT1148   PT        0.137285    0.465387    0.347980     0.004505
AU1149   AU        0.137496    0.499869    0.312077     0.007504
PT1150   PT        0.170131    0.465190    0.313437     0.004505
AU1151   AU        0.169840    0.500962    0.346657     0.007504
AU1152   AU        0.204298    0.465360    0.348250     0.007504
PT1153   PT        0.204593    0.499707    0.312978     0.004505
PT1154   PT        0.236740    0.464496    0.311923     0.004505
PT1155   PT        0.237174    0.500401    0.347186     0.004505
PT1156   PT        0.269565    0.465376    0.348393     0.004505
PT1157   PT        0.270121    0.500152    0.312374     0.004505
PT1158   PT        0.301782    0.464412    0.312320     0.004505
AU1159   AU        0.302155    0.498952    0.347365     0.007504
PT1160   PT        0.334173    0.465296    0.347286     0.004505
PT1161   PT        0.334826    0.500156    0.313220     0.004505
PT1162   PT        0.366429    0.464423    0.312662     0.004505
PT1163   PT        0.366810    0.500017    0.346281     0.004505
PT1164   PT        0.399720    0.464217    0.347842     0.004505
AU1165   AU        0.401143    0.499600    0.312384     0.007504
AU1166   AU        0.432716    0.463795    0.312625     0.007504
PT1167   PT        0.434464    0.499814    0.346029     0.004505
PT1168   PT        0.466061    0.464153    0.349451     0.004505
PT1169   PT        0.465383    0.499111    0.311334     0.004505
PT1170   PT        0.498564    0.462942    0.314498     0.004505
PT1171   PT        0.497990    0.501242    0.348412     0.004505
PT1172   PT        0.531215    0.465436    0.348442     0.004505
PT1173   PT        0.529247    0.500271    0.313333     0.004505
AU1174   AU        0.564702    0.465537    0.311725     0.007504
PT1175   PT        0.563008    0.501380    0.348028     0.004505
PT1176   PT        0.597376    0.465332    0.346923     0.004505
PT1177   PT        0.595634    0.502241    0.314181     0.004505
PT1178   PT        0.628174    0.465905    0.314244     0.004505
PT1179   PT        0.632051    0.500413    0.348077     0.004505
PT1180   PT        0.662232    0.463659    0.348016     0.004505
AU1181   AU        0.662732    0.500746    0.313507     0.007504
PT1182   PT        0.695668    0.464768    0.313002     0.004505
PT1183   PT        0.694426    0.501483    0.347697     0.004505
PT1184   PT        0.728189    0.464493    0.351459     0.004505
AU1185   AU        0.730331    0.501661    0.315402     0.007504
AU1186   AU        0.764678    0.465601    0.311755     0.007504
PT1187   PT        0.762112    0.499851    0.350491     0.004505
AU1188   AU        0.794752    0.466221    0.347487     0.007504
AU1189   AU        0.795980    0.500241    0.313835     0.007504
AU1190   AU        0.073807    0.532902    0.347339     0.007504
AU1191   AU        0.070875    0.567893    0.312417     0.007504
AU1192   AU        0.107193    0.533458    0.312582     0.007504
AU1193   AU        0.106607    0.569557    0.348613     0.007504
PT1194   PT        0.139049    0.533831    0.348387     0.004505
AU1195   AU        0.139051    0.571886    0.313645     0.007504
PT1196   PT        0.172923    0.535863    0.312244     0.004505
PT1197   PT        0.173584    0.568734    0.347057     0.004505
PT1198   PT        0.204483    0.533666    0.347449     0.004505
PT1199   PT        0.204570    0.570171    0.312855     0.004505
PT1200   PT        0.237221    0.536157    0.313549     0.004505
AU1201   AU        0.235773    0.570067    0.347782     0.007504
PT1202   PT        0.269771    0.536320    0.346537     0.004505
PT1203   PT        0.268936    0.569248    0.311661     0.004505
PT1204   PT        0.302406    0.535888    0.313206     0.004505
PT1205   PT        0.302661    0.570404    0.347441     0.004505
PT1206   PT        0.334834    0.534434    0.347648     0.004505
PT1207   PT        0.335285    0.570668    0.312046     0.004505
PT1208   PT        0.367752    0.535036    0.313371     0.004505
PT1209   PT        0.367659    0.570849    0.348410     0.004505
PT1210   PT        0.400700    0.534862    0.347992     0.004505
AU1211   AU        0.400230    0.570800    0.312218     0.007504
PT1212   PT        0.433030    0.535407    0.311601     0.004505
PT1213   PT        0.432748    0.569263    0.348911     0.004505
PT1214   PT        0.464665    0.534610    0.347374     0.004505
AU1215   AU        0.464590    0.569985    0.313006     0.007504
PT1216   PT        0.498848    0.534429    0.311803     0.004505
PT1217   PT        0.498934    0.569279    0.349703     0.004505
PT1218   PT        0.531447    0.537360    0.348419     0.004505
AU1219   AU        0.530533    0.571011    0.313016     0.007504
PT1220   PT        0.562944    0.536069    0.313966     0.004505
AU1221   AU        0.563768    0.570243    0.347508     0.007504
AU1222   AU        0.597714    0.535275    0.348631     0.007504
PT1223   PT        0.596967    0.571510    0.311380     0.004505
AU1224   AU        0.629302    0.534590    0.312826     0.007504
PT1225   PT        0.630713    0.570110    0.346958     0.004505
AU1226   AU        0.661891    0.536275    0.349419     0.007504
PT1227   PT        0.662292    0.568824    0.312257     0.004505
AU1228   AU        0.695542    0.535816    0.314832     0.007504
AU1229   AU        0.693819    0.572392    0.347894     0.007504
PT1230   PT        0.729150    0.535901    0.348485     0.004505
PT1231   PT        0.726898    0.570843    0.312384     0.004505
AU1232   AU        0.763517    0.536460    0.313927     0.007504
PT1233   PT        0.764242    0.568559    0.348889     0.004505
AU1234   AU        0.796244    0.534519    0.350133     0.007504
AU1235   AU        0.800276    0.567679    0.311186     0.007504
PT1236   PT        0.070261    0.603911    0.348618     0.004505
AU1237   AU        0.104010    0.604401    0.311469     0.007504
AU1238   AU        0.104338    0.640167    0.350419     0.007504
AU1239   AU        0.139974    0.606238    0.349345     0.007504
PT1240   PT        0.138197    0.641421    0.312627     0.004505
AU1241   AU        0.170476    0.605408    0.313799     0.007504
AU1242   AU        0.169919    0.639733    0.347263     0.007504
PT1243   PT        0.203373    0.604936    0.346016     0.004505
AU1244   AU        0.204257    0.641069    0.314380     0.007504
PT1245   PT        0.236827    0.604735    0.312275     0.004505
AU1246   AU        0.236487    0.639698    0.346913     0.007504
PT1247   PT        0.269172    0.604932    0.347151     0.004505
AU1248   AU        0.269853    0.639281    0.312171     0.007504
AU1249   AU        0.301957    0.605464    0.312985     0.007504
AU1250   AU        0.301600    0.639494    0.347557     0.007504
PT1251   PT        0.335434    0.605604    0.349080     0.004505
PT1252   PT        0.334476    0.640131    0.313144     0.004505
PT1253   PT        0.367981    0.606197    0.312936     0.004505
PT1254   PT        0.366467    0.639789    0.347704     0.004505
PT1255   PT        0.399342    0.604303    0.347780     0.004505
PT1256   PT        0.400667    0.639909    0.312956     0.004505
AU1257   AU        0.432293    0.605304    0.313722     0.007504
PT1258   PT        0.434609    0.640929    0.346957     0.004505
PT1259   PT        0.464739    0.604621    0.346585     0.004505
PT1260   PT        0.466429    0.640265    0.313012     0.004505
PT1261   PT        0.498740    0.607707    0.312886     0.004505
PT1262   PT        0.498697    0.639777    0.348105     0.004505
PT1263   PT        0.531176    0.605983    0.348780     0.004505
PT1264   PT        0.533060    0.639481    0.313542     0.004505
PT1265   PT        0.562266    0.605819    0.312322     0.004505
PT1266   PT        0.562864    0.640133    0.349945     0.004505
AU1267   AU        0.598925    0.604835    0.345976     0.007504
PT1268   PT        0.596373    0.639353    0.313346     0.004505
PT1269   PT        0.630540    0.606241    0.312457     0.004505
PT1270   PT        0.628072    0.640006    0.349940     0.004505
PT1271   PT        0.661757    0.607015    0.348813     0.004505
PT1272   PT        0.662212    0.641338    0.313213     0.004505
AU1273   AU        0.694445    0.604995    0.312705     0.007504
AU1274   AU        0.696222    0.641115    0.347104     0.007504
AU1275   AU        0.731864    0.603360    0.347976     0.007504
AU1276   AU        0.730550    0.639692    0.312120     0.007504
AU1277   AU        0.765786    0.604510    0.312537     0.007504
AU1278   AU        0.766406    0.640411    0.345347     0.007504
AU1279   AU        0.799043    0.602134    0.348690     0.007504
PT1280   PT        0.135844    0.679814    0.350410     0.004505
AU1281   AU        0.135179    0.711375    0.309235     0.007504
PT1282   PT        0.172442    0.675952    0.311604     0.004505
AU1283   AU        0.173863    0.711195    0.348272     0.007504
AU1284   AU        0.205607    0.675749    0.346879     0.007504
PT1285   PT        0.204636    0.711224    0.311763     0.004505
PT1286   PT        0.237955    0.676470    0.313888     0.004505
PT1287   PT        0.236807    0.711084    0.348469     0.004505
AU1288   AU        0.270035    0.675020    0.348483     0.007504
AU1289   AU        0.270888    0.709492    0.312453     0.007504
PT1290   PT        0.302330    0.673943    0.312106     0.004505
AU1291   AU        0.301605    0.710838    0.348503     0.007504
PT1292   PT        0.333386    0.676031    0.348113     0.004505
PT1293   PT        0.334666    0.711232    0.313800     0.004505
PT1294   PT        0.367587    0.675233    0.314028     0.004505
PT1295   PT        0.368115    0.710470    0.347813     0.004505
PT1296   PT        0.399660    0.674520    0.347038     0.004505
AU1297   AU        0.400191    0.710894    0.313998     0.007504
PT1298   PT        0.433926    0.676993    0.313933     0.004505
AU1299   AU        0.432426    0.711651    0.348209     0.007504
AU1300   AU        0.464693    0.677095    0.348950     0.007504
PT1301   PT        0.465222    0.712066    0.312414     0.004505
PT1302   PT        0.498255    0.674224    0.313096     0.004505
AU1303   AU        0.497851    0.712084    0.348229     0.007504
AU1304   AU        0.530466    0.675801    0.348682     0.007504
PT1305   PT        0.532446    0.710290    0.313899     0.004505
PT1306   PT        0.564305    0.674047    0.312797     0.004505
PT1307   PT        0.563199    0.709637    0.348851     0.004505
PT1308   PT        0.595190    0.678012    0.348786     0.004505
AU1309   AU        0.594803    0.710899    0.312892     0.007504
AU1310   AU        0.629421    0.677577    0.312399     0.007504
PT1311   PT        0.629246    0.712297    0.349146     0.004505
PT1312   PT        0.662669    0.675269    0.348310     0.004505
AU1313   AU        0.663657    0.711292    0.312527     0.007504
AU1314   AU        0.696283    0.677183    0.312119     0.007504
AU1315   AU        0.698069    0.711407    0.348356     0.007504
AU1316   AU        0.729399    0.674578    0.347464     0.007504
PT1317   PT        0.732338    0.711012    0.313277     0.004505
AU1318   AU        0.166403    0.744303    0.310585     0.007504
AU1319   AU        0.203632    0.746976    0.346073     0.007504
PT1320   PT        0.170593    0.784256    0.351953     0.004505
PT1321   PT        0.238509    0.746464    0.311520     0.004505
PT1322   PT        0.237644    0.780017    0.348902     0.004505
AU1323   AU        0.269836    0.745714    0.346963     0.007504
AU1324   AU        0.269992    0.782829    0.313581     0.007504
AU1325   AU        0.300507    0.744913    0.311112     0.007504
AU1326   AU        0.302058    0.779526    0.347966     0.007504
PT1327   PT        0.334496    0.745866    0.347969     0.004505
AU1328   AU        0.334104    0.780664    0.311402     0.007504
PT1329   PT        0.366087    0.744678    0.312416     0.004505
AU1330   AU        0.366210    0.781895    0.347760     0.007504
PT1331   PT        0.399830    0.746937    0.348806     0.004505
PT1332   PT        0.400823    0.779381    0.312165     0.004505
PT1333   PT        0.433314    0.744715    0.313623     0.004505
AU1334   AU        0.432027    0.781591    0.348441     0.007504
AU1335   AU        0.466377    0.746322    0.348044     0.007504
PT1336   PT        0.465082    0.780727    0.312511     0.004505
AU1337   AU        0.499005    0.745034    0.312603     0.007504
AU1338   AU        0.496642    0.778908    0.348816     0.007504
PT1339   PT        0.532080    0.746008    0.347307     0.004505
AU1340   AU        0.530260    0.781179    0.313001     0.007504
PT1341   PT        0.563268    0.748012    0.311636     0.004505
PT1342   PT        0.563531    0.781580    0.347037     0.004505
PT1343   PT        0.597548    0.744895    0.346785     0.004505
PT1344   PT        0.595732    0.781689    0.311773     0.004505
PT1345   PT        0.629410    0.745535    0.312182     0.004505
AU1346   AU        0.633650    0.781412    0.345633     0.007504
AU1347   AU        0.666626    0.747227    0.344717     0.007504
PT1348   PT        0.676783    0.796747    0.334470     0.004505
AU1349   AU        0.703329    0.814853    0.297355     0.007504
AU1350   AU        0.268218    0.819464    0.349655     0.007504
PT1351   PT        0.300296    0.817972    0.313449     0.004505
AU1352   AU        0.301272    0.854664    0.349108     0.007504
PT1353   PT        0.332964    0.815721    0.347969     0.004505
PT1354   PT        0.333406    0.854805    0.309056     0.004505
AU1355   AU        0.366906    0.818322    0.313124     0.007504
AU1356   AU        0.365541    0.852312    0.349550     0.007504
PT1357   PT        0.398564    0.813567    0.349247     0.004505
PT1358   PT        0.399069    0.855500    0.315020     0.004505
PT1359   PT        0.431483    0.817322    0.313228     0.004505
AU1360   AU        0.435074    0.853338    0.347000     0.007504
AU1361   AU        0.464127    0.817109    0.347161     0.007504
AU1362   AU        0.465168    0.854132    0.310779     0.007504
AU1363   AU        0.497986    0.818841    0.313208     0.007504
AU1364   AU        0.498648    0.854658    0.346563     0.007504
AU1365   AU        0.531956    0.815719    0.345606     0.007504
PT1366   PT        0.534856    0.852633    0.313648     0.004505
PT1367   PT        0.565053    0.818136    0.311454     0.004505
PT1368   PT        0.565075    0.853708    0.348623     0.004505
AU1369   AU        0.602286    0.817143    0.348326     0.007504
PT1370   PT        0.268688    0.069728    0.382212     0.004505
AU1371   AU        0.302246    0.069828    0.418338     0.007504
AU1372   AU        0.337213    0.072300    0.383513     0.007504
PT1373   PT        0.364555    0.071136    0.423384     0.004505
AU1374   AU        0.398131    0.034286    0.417496     0.007504
PT1375   PT        0.401675    0.073452    0.382013     0.004505
PT1376   PT        0.432893    0.035285    0.382622     0.004505
AU1377   AU        0.434940    0.072076    0.416964     0.007504
AU1378   AU        0.465287    0.037444    0.417165     0.007504
AU1379   AU        0.466220    0.072633    0.383202     0.007504
AU1380   AU        0.499681    0.075174    0.419497     0.007504
AU1381   AU        0.529820    0.077794    0.380146     0.007504
PT1382   PT        0.562574    0.070971    0.420796     0.004505
PT1383   PT        0.595906    0.035635    0.420416     0.004505
AU1384   AU        0.167591    0.143220    0.420281     0.007504
AU1385   AU        0.199895    0.107291    0.418779     0.007504
PT1386   PT        0.201856    0.144835    0.383454     0.004505
AU1387   AU        0.235463    0.108775    0.386558     0.007504
AU1388   AU        0.233968    0.144765    0.421460     0.007504
AU1389   AU        0.269421    0.106740    0.418366     0.007504
AU1390   AU        0.270182    0.143324    0.385141     0.007504
PT1391   PT        0.302991    0.107727    0.385533     0.004505
AU1392   AU        0.303093    0.145804    0.420022     0.007504
PT1393   PT        0.333521    0.110025    0.421742     0.004505
AU1394   AU        0.334177    0.148540    0.383391     0.007504
AU1395   AU        0.366694    0.110118    0.385484     0.007504
AU1396   AU        0.368665    0.148731    0.418842     0.007504
AU1397   AU        0.401901    0.109216    0.418157     0.007504
AU1398   AU        0.402068    0.145340    0.385458     0.007504
PT1399   PT        0.434943    0.110159    0.383734     0.004505
AU1400   AU        0.434106    0.145948    0.419757     0.007504
PT1401   PT        0.469502    0.110533    0.418868     0.004505
PT1402   PT        0.468387    0.148656    0.382961     0.004505
AU1403   AU        0.498126    0.110902    0.382006     0.007504
PT1404   PT        0.498652    0.147585    0.417992     0.004505
AU1405   AU        0.529850    0.113118    0.418184     0.007504
AU1406   AU        0.531085    0.148642    0.385336     0.007504
AU1407   AU        0.565616    0.111677    0.383591     0.007504
PT1408   PT        0.565522    0.147922    0.418045     0.004505
AU1409   AU        0.596773    0.104885    0.417393     0.007504
PT1410   PT        0.600552    0.145896    0.384236     0.004505
PT1411   PT        0.635396    0.109616    0.384354     0.004505
PT1412   PT        0.633303    0.146774    0.419052     0.004505
AU1413   AU        0.668184    0.110693    0.420041     0.007504
PT1414   PT        0.666493    0.145071    0.384170     0.004505
PT1415   PT        0.699533    0.146707    0.417977     0.004505
PT1416   PT        0.103964    0.218448    0.418489     0.004505
PT1417   PT        0.132885    0.143840    0.454339     0.004505
PT1418   PT        0.136458    0.218377    0.380210     0.004505
AU1419   AU        0.171829    0.183170    0.385035     0.007504
AU1420   AU        0.170403    0.216206    0.419426     0.007504
AU1421   AU        0.202927    0.180222    0.420604     0.007504
AU1422   AU        0.204143    0.217017    0.383985     0.007504
PT1423   PT        0.234361    0.180848    0.385152     0.004505
PT1424   PT        0.235891    0.219056    0.418567     0.004505
PT1425   PT        0.268527    0.184994    0.418061     0.004505
PT1426   PT        0.269707    0.221325    0.383428     0.004505
PT1427   PT        0.302588    0.185105    0.382283     0.004505
AU1428   AU        0.301256    0.218403    0.417806     0.007504
AU1429   AU        0.335260    0.182757    0.418950     0.007504
AU1430   AU        0.334355    0.219956    0.382691     0.007504
PT1431   PT        0.368163    0.186117    0.384357     0.004505
PT1432   PT        0.367163    0.221785    0.417458     0.004505
PT1433   PT        0.401104    0.184166    0.417615     0.004505
PT1434   PT        0.399097    0.219539    0.382819     0.004505
PT1435   PT        0.432676    0.181430    0.383340     0.004505
PT1436   PT        0.433711    0.219918    0.418128     0.004505
AU1437   AU        0.465738    0.182539    0.419174     0.007504
AU1438   AU        0.467301    0.216808    0.384326     0.007504
AU1439   AU        0.499537    0.183599    0.383746     0.007504
AU1440   AU        0.499088    0.216030    0.418527     0.007504
PT1441   PT        0.532734    0.183152    0.419445     0.004505
PT1442   PT        0.530565    0.216737    0.383974     0.004505
AU1443   AU        0.563067    0.184393    0.381910     0.007504
PT1444   PT        0.562956    0.217330    0.420203     0.004505
AU1445   AU        0.598357    0.182253    0.419143     0.007504
PT1446   PT        0.599878    0.217493    0.387334     0.004505
PT1447   PT        0.634865    0.182148    0.383019     0.004505
PT1448   PT        0.632377    0.218705    0.421423     0.004505
AU1449   AU        0.663546    0.182821    0.420155     0.007504
AU1450   AU        0.664478    0.219246    0.382672     0.007504
AU1451   AU        0.698190    0.182752    0.386451     0.007504
AU1452   AU        0.699591    0.216540    0.419805     0.007504
PT1453   PT        0.733169    0.182108    0.418062     0.004505
PT1454   PT        0.732488    0.213590    0.381656     0.004505
PT1455   PT        0.766162    0.216534    0.416270     0.004505
AU1456   AU        0.034141    0.255422    0.448520     0.007504
AU1457   AU        0.100413    0.252550    0.378120     0.007504
AU1458   AU        0.102621    0.286210    0.417659     0.007504
AU1459   AU        0.135450    0.251887    0.418035     0.007504
AU1460   AU        0.136096    0.287537    0.383649     0.007504
PT1461   PT        0.172550    0.251169    0.381943     0.004505
PT1462   PT        0.170011    0.288047    0.421161     0.004505
PT1463   PT        0.203687    0.255672    0.416719     0.004505
AU1464   AU        0.205172    0.290163    0.382373     0.007504
AU1465   AU        0.237639    0.255079    0.383084     0.007504
PT1466   PT        0.236227    0.291800    0.418459     0.004505
PT1467   PT        0.269968    0.254179    0.420151     0.004505
PT1468   PT        0.268434    0.288842    0.383798     0.004505
PT1469   PT        0.301380    0.255421    0.384129     0.004505
AU1470   AU        0.302488    0.291810    0.418960     0.007504
PT1471   PT        0.334196    0.253868    0.418984     0.004505
AU1472   AU        0.334979    0.289201    0.383893     0.007504
AU1473   AU        0.369164    0.255170    0.382835     0.007504
AU1474   AU        0.365506    0.289476    0.418115     0.007504
AU1475   AU        0.401703    0.254601    0.416657     0.007504
PT1476   PT        0.399566    0.290779    0.384173     0.004505
PT1477   PT        0.433265    0.254848    0.382177     0.004505
AU1478   AU        0.433943    0.287951    0.417232     0.007504
PT1479   PT        0.466782    0.254535    0.417438     0.004505
PT1480   PT        0.465720    0.292170    0.382443     0.004505
PT1481   PT        0.498993    0.255219    0.383648     0.004505
AU1482   AU        0.499852    0.287878    0.418628     0.007504
PT1483   PT        0.530856    0.254842    0.418678     0.004505
PT1484   PT        0.532326    0.289996    0.382541     0.004505
PT1485   PT        0.563065    0.252479    0.383411     0.004505
PT1486   PT        0.563692    0.289970    0.417177     0.004505
AU1487   AU        0.595690    0.255734    0.419380     0.007504
PT1488   PT        0.596926    0.289495    0.384287     0.004505
PT1489   PT        0.631134    0.256039    0.385816     0.004505
AU1490   AU        0.629855    0.287237    0.420208     0.007504
PT1491   PT        0.665823    0.254716    0.418328     0.004505
AU1492   AU        0.663823    0.289568    0.384455     0.007504
AU1493   AU        0.699593    0.252858    0.383510     0.007504
PT1494   PT        0.698033    0.288998    0.420232     0.004505
AU1495   AU        0.732286    0.250398    0.417999     0.007504
PT1496   PT        0.730991    0.287874    0.385194     0.004505
PT1497   PT        0.764134    0.250810    0.382759     0.004505
AU1498   AU        0.763098    0.288137    0.418240     0.007504
AU1499   AU        0.798521    0.284858    0.387238     0.007504
AU1500   AU        0.068334    0.321733    0.416071     0.007504
AU1501   AU        0.070514    0.360343    0.383883     0.007504
PT1502   PT        0.101253    0.290806    0.347717     0.004505
PT1503   PT        0.104272    0.357018    0.417228     0.004505
AU1504   AU        0.136020    0.323030    0.418271     0.007504
AU1505   AU        0.139996    0.358027    0.383893     0.007504
PT1506   PT        0.172206    0.323702    0.383648     0.004505
AU1507   AU        0.172184    0.359660    0.419547     0.007504
AU1508   AU        0.203523    0.324701    0.419622     0.007504
AU1509   AU        0.205086    0.359385    0.382809     0.007504
PT1510   PT        0.237017    0.326283    0.382034     0.004505
PT1511   PT        0.235956    0.361027    0.419041     0.004505
PT1512   PT        0.269853    0.325809    0.416474     0.004505
PT1513   PT        0.269513    0.361654    0.383677     0.004505
PT1514   PT        0.303156    0.324615    0.382602     0.004505
PT1515   PT        0.302048    0.360628    0.419919     0.004505
AU1516   AU        0.335212    0.325233    0.418880     0.007504
AU1517   AU        0.333502    0.358467    0.383258     0.007504
AU1518   AU        0.368112    0.324254    0.383542     0.007504
AU1519   AU        0.368191    0.360410    0.417024     0.007504
AU1520   AU        0.399623    0.324002    0.418672     0.007504
PT1521   PT        0.399987    0.359888    0.383459     0.004505
AU1522   AU        0.432888    0.324804    0.384225     0.007504
PT1523   PT        0.432710    0.359936    0.417478     0.004505
AU1524   AU        0.466976    0.324811    0.419136     0.007504
PT1525   PT        0.465031    0.361244    0.382047     0.004505
AU1526   AU        0.498687    0.326532    0.382693     0.007504
PT1527   PT        0.498676    0.358589    0.418970     0.004505
PT1528   PT        0.531176    0.323288    0.417654     0.004505
PT1529   PT        0.531884    0.358998    0.384080     0.004505
AU1530   AU        0.563035    0.322986    0.382660     0.007504
PT1531   PT        0.565083    0.360205    0.417924     0.004505
PT1532   PT        0.595709    0.324936    0.417831     0.004505
AU1533   AU        0.596343    0.361762    0.381635     0.007504
AU1534   AU        0.629332    0.323139    0.383835     0.007504
AU1535   AU        0.628568    0.357935    0.417100     0.007504
AU1536   AU        0.661907    0.324687    0.418316     0.007504
PT1537   PT        0.662779    0.359269    0.381946     0.004505
AU1538   AU        0.696556    0.322644    0.381379     0.007504
AU1539   AU        0.695976    0.360079    0.416361     0.007504
AU1540   AU        0.729349    0.324547    0.419210     0.007504
PT1541   PT        0.732378    0.358627    0.382023     0.004505
AU1542   AU        0.764653    0.322627    0.384084     0.007504
AU1543   AU        0.765463    0.358233    0.418109     0.007504
PT1544   PT        0.799652    0.322510    0.416715     0.004505
PT1545   PT        0.831110    0.352709    0.347206     0.004505
PT1546   PT        0.034950    0.427243    0.416201     0.004505
PT1547   PT        0.069804    0.395351    0.419455     0.004505
AU1548   AU        0.073121    0.431175    0.383182     0.007504
PT1549   PT        0.107771    0.395049    0.382051     0.004505
AU1550   AU        0.106713    0.428777    0.417730     0.007504
AU1551   AU        0.139132    0.393480    0.417292     0.007504
PT1552   PT        0.139985    0.429788    0.384871     0.004505
PT1553   PT        0.171188    0.395285    0.384318     0.004505
AU1554   AU        0.171361    0.430160    0.419389     0.007504
AU1555   AU        0.204587    0.394140    0.418673     0.007504
PT1556   PT        0.204016    0.430248    0.384267     0.004505
AU1557   AU        0.236399    0.395033    0.382267     0.007504
PT1558   PT        0.236437    0.428503    0.418774     0.004505
AU1559   AU        0.267486    0.395574    0.417446     0.007504
AU1560   AU        0.268646    0.428223    0.383718     0.007504
PT1561   PT        0.302506    0.394966    0.383260     0.004505
PT1562   PT        0.302299    0.430768    0.417895     0.004505
PT1563   PT        0.334905    0.395684    0.418488     0.004505
PT1564   PT        0.335209    0.430791    0.382945     0.004505
AU1565   AU        0.368113    0.394353    0.384244     0.007504
PT1566   PT        0.368183    0.431501    0.419294     0.004505
AU1567   AU        0.400137    0.395616    0.418264     0.007504
PT1568   PT        0.401053    0.429315    0.384191     0.004505
AU1569   AU        0.433301    0.395016    0.382622     0.007504
PT1570   PT        0.433316    0.430516    0.418002     0.004505
AU1571   AU        0.466530    0.395169    0.417097     0.007504
PT1572   PT        0.464409    0.428819    0.382497     0.004505
AU1573   AU        0.497649    0.395412    0.381580     0.007504
AU1574   AU        0.496553    0.430636    0.418560     0.007504
PT1575   PT        0.529996    0.394935    0.417641     0.004505
AU1576   AU        0.529837    0.430137    0.383869     0.007504
PT1577   PT        0.562745    0.396883    0.381361     0.004505
PT1578   PT        0.563737    0.430260    0.418498     0.004505
AU1579   AU        0.596415    0.395621    0.418728     0.007504
PT1580   PT        0.596271    0.429932    0.382717     0.004505
PT1581   PT        0.629778    0.394549    0.384049     0.004505
PT1582   PT        0.630182    0.429695    0.418983     0.004505
AU1583   AU        0.661719    0.393653    0.418093     0.007504
PT1584   PT        0.661897    0.429719    0.383886     0.004505
AU1585   AU        0.697648    0.392923    0.384973     0.007504
AU1586   AU        0.694076    0.430091    0.418037     0.007504
AU1587   AU        0.729966    0.394743    0.419521     0.007504
AU1588   AU        0.727195    0.430251    0.385989     0.007504
PT1589   PT        0.763749    0.392092    0.383428     0.004505
AU1590   AU        0.764486    0.427106    0.417608     0.007504
PT1591   PT        0.798588    0.395561    0.416590     0.004505
AU1592   AU        0.799375    0.431777    0.380153     0.007504
AU1593   AU        0.832645    0.427218    0.416124     0.007504
AU1594   AU        0.039498    0.464115    0.382100     0.007504
AU1595   AU        0.037940    0.500403    0.417187     0.007504
PT1596   PT        0.073894    0.465110    0.418887     0.004505
PT1597   PT        0.074970    0.499705    0.382688     0.004505
PT1598   PT        0.107649    0.465259    0.382024     0.004505
PT1599   PT        0.107334    0.500078    0.418082     0.004505
PT1600   PT        0.140043    0.464642    0.419214     0.004505
AU1601   AU        0.140749    0.500037    0.382672     0.007504
PT1602   PT        0.172837    0.464938    0.382015     0.004505
AU1603   AU        0.170944    0.500860    0.418148     0.007504
PT1604   PT        0.205524    0.464897    0.417597     0.004505
PT1605   PT        0.204217    0.500736    0.382979     0.004505
PT1606   PT        0.237361    0.464739    0.383464     0.004505
PT1607   PT        0.237558    0.500051    0.416809     0.004505
PT1608   PT        0.268697    0.464209    0.418385     0.004505
PT1609   PT        0.270787    0.499050    0.383250     0.004505
AU1610   AU        0.302699    0.463888    0.383851     0.007504
PT1611   PT        0.301270    0.499775    0.417950     0.004505
AU1612   AU        0.334261    0.465722    0.417899     0.007504
PT1613   PT        0.333378    0.500064    0.383495     0.004505
PT1614   PT        0.367490    0.464680    0.382290     0.004505
PT1615   PT        0.367131    0.500187    0.418371     0.004505
AU1616   AU        0.400909    0.466411    0.417420     0.007504
PT1617   PT        0.399519    0.500334    0.381972     0.004505
PT1618   PT        0.433952    0.466185    0.382979     0.004505
AU1619   AU        0.434452    0.500034    0.418747     0.007504
PT1620   PT        0.465349    0.466462    0.418046     0.004505
AU1621   AU        0.464896    0.501328    0.382635     0.007504
PT1622   PT        0.497641    0.464001    0.381794     0.004505
PT1623   PT        0.497790    0.501643    0.418972     0.004505
AU1624   AU        0.531106    0.465358    0.417561     0.007504
PT1625   PT        0.530123    0.500046    0.384156     0.004505
AU1626   AU        0.565099    0.465725    0.380942     0.007504
PT1627   PT        0.565347    0.499302    0.417336     0.004505
PT1628   PT        0.596408    0.464886    0.417577     0.004505
PT1629   PT        0.598132    0.499951    0.383324     0.004505
PT1630   PT        0.631027    0.466384    0.382184     0.004505
AU1631   AU        0.630561    0.500787    0.416649     0.007504
PT1632   PT        0.663413    0.466120    0.418615     0.004505
PT1633   PT        0.662537    0.501255    0.382027     0.004505
PT1634   PT        0.694726    0.466624    0.383756     0.004505
PT1635   PT        0.695049    0.501377    0.419850     0.004505
AU1636   AU        0.727094    0.465615    0.420562     0.007504
PT1637   PT        0.727057    0.500825    0.384098     0.004505
AU1638   AU        0.761144    0.463132    0.385577     0.007504
PT1639   PT        0.758984    0.498262    0.419784     0.004505
AU1640   AU        0.797929    0.461396    0.418034     0.007504
AU1641   AU        0.795959    0.496982    0.384863     0.007504
AU1642   AU        0.834346    0.467356    0.381668     0.007504
AU1643   AU        0.831724    0.498980    0.417515     0.007504
AU1644   AU        0.072416    0.533198    0.418961     0.007504
PT1645   PT        0.068717    0.568247    0.385747     0.004505
PT1646   PT        0.105261    0.535627    0.383448     0.004505
AU1647   AU        0.102450    0.567270    0.420527     0.007504
PT1648   PT        0.139329    0.535511    0.416469     0.004505
AU1649   AU        0.138736    0.569939    0.381737     0.007504
PT1650   PT        0.171807    0.534650    0.382052     0.004505
PT1651   PT        0.173027    0.570656    0.417574     0.004505
PT1652   PT        0.204667    0.533221    0.417850     0.004505
PT1653   PT        0.205413    0.568723    0.381516     0.004505
PT1654   PT        0.238593    0.534525    0.381891     0.004505
PT1655   PT        0.237295    0.570086    0.416334     0.004505
PT1656   PT        0.269795    0.534694    0.418963     0.004505
PT1657   PT        0.270031    0.571401    0.383349     0.004505
AU1658   AU        0.302161    0.536027    0.383518     0.007504
PT1659   PT        0.302975    0.570589    0.416942     0.004505
PT1660   PT        0.334956    0.535158    0.417082     0.004505
PT1661   PT        0.335275    0.570529    0.383040     0.004505
PT1662   PT        0.366677    0.533766    0.382522     0.004505
PT1663   PT        0.367205    0.569192    0.418224     0.004505
PT1664   PT        0.399950    0.535838    0.418121     0.004505
PT1665   PT        0.399961    0.570950    0.383909     0.004505
AU1666   AU        0.432105    0.535372    0.383907     0.007504
PT1667   PT        0.432837    0.570669    0.417107     0.004505
PT1668   PT        0.465918    0.536420    0.417779     0.004505
PT1669   PT        0.466517    0.570465    0.382207     0.004505
PT1670   PT        0.497977    0.535740    0.384099     0.004505
PT1671   PT        0.498545    0.570352    0.419634     0.004505
PT1672   PT        0.531706    0.534224    0.419145     0.004505
PT1673   PT        0.529935    0.569622    0.385543     0.004505
AU1674   AU        0.562698    0.535106    0.382232     0.007504
PT1675   PT        0.562524    0.571460    0.418598     0.004505
PT1676   PT        0.593976    0.536276    0.417853     0.004505
PT1677   PT        0.596557    0.571840    0.382840     0.004505
PT1678   PT        0.630089    0.536347    0.383391     0.004505
PT1679   PT        0.629200    0.570968    0.417888     0.004505
PT1680   PT        0.663159    0.536311    0.418639     0.004505
AU1681   AU        0.661565    0.573168    0.382884     0.007504
PT1682   PT        0.694061    0.536756    0.382194     0.004505
AU1683   AU        0.697490    0.571998    0.418930     0.007504
AU1684   AU        0.727954    0.536810    0.417644     0.007504
AU1685   AU        0.728614    0.571002    0.383203     0.007504
AU1686   AU        0.761669    0.534161    0.385727     0.007504
AU1687   AU        0.761396    0.570439    0.417431     0.007504
PT1688   PT        0.795797    0.532158    0.418182     0.004505
PT1689   PT        0.798528    0.566511    0.385683     0.004505
AU1690   AU        0.067372    0.609588    0.421191     0.007504
AU1691   AU        0.068456    0.639113    0.382861     0.007504
PT1692   PT        0.099994    0.603272    0.385954     0.004505
AU1693   AU        0.102451    0.640623    0.420667     0.007504
AU1694   AU        0.136447    0.605012    0.418200     0.007504
PT1695   PT        0.135929    0.641638    0.384768     0.004505
PT1696   PT        0.172553    0.606252    0.382918     0.004505
AU1697   AU        0.171963    0.639395    0.417753     0.007504
AU1698   AU        0.205690    0.604990    0.416588     0.007504
PT1699   PT        0.204894    0.641040    0.383774     0.004505
PT1700   PT        0.237241    0.604337    0.381796     0.004505
AU1701   AU        0.237328    0.639812    0.418580     0.007504
PT1702   PT        0.270329    0.605617    0.417592     0.004505
AU1703   AU        0.269573    0.640563    0.384015     0.007504
PT1704   PT        0.302375    0.605205    0.382228     0.004505
PT1705   PT        0.299994    0.641499    0.419331     0.004505
PT1706   PT        0.334980    0.606522    0.417612     0.004505
PT1707   PT        0.335263    0.640879    0.383686     0.004505
AU1708   AU        0.368453    0.604312    0.382745     0.007504
PT1709   PT        0.367420    0.640618    0.416917     0.004505
AU1710   AU        0.399529    0.606636    0.417382     0.007504
PT1711   PT        0.400824    0.641667    0.381546     0.004505
AU1712   AU        0.432838    0.605893    0.381204     0.007504
PT1713   PT        0.433304    0.640861    0.418303     0.004505
PT1714   PT        0.464130    0.604881    0.417448     0.004505
PT1715   PT        0.466259    0.640666    0.381800     0.004505
PT1716   PT        0.496938    0.606015    0.383491     0.004505
AU1717   AU        0.496740    0.641027    0.418640     0.007504
PT1718   PT        0.530582    0.606263    0.417624     0.004505
PT1719   PT        0.530199    0.641025    0.384009     0.004505
PT1720   PT        0.562971    0.605901    0.383653     0.004505
AU1721   AU        0.563342    0.640641    0.419219     0.007504
PT1722   PT        0.594938    0.605101    0.417745     0.004505
PT1723   PT        0.596941    0.639330    0.382778     0.004505
AU1724   AU        0.628393    0.606108    0.383743     0.007504
PT1725   PT        0.627877    0.640206    0.418724     0.004505
PT1726   PT        0.661232    0.605700    0.417872     0.004505
PT1727   PT        0.660967    0.640168    0.384792     0.004505
AU1728   AU        0.694155    0.606191    0.383562     0.007504
PT1729   PT        0.694008    0.640008    0.419212     0.004505
AU1730   AU        0.728499    0.605131    0.417197     0.007504
PT1731   PT        0.732099    0.639895    0.380465     0.004505
AU1732   AU        0.764231    0.606186    0.382875     0.007504
AU1733   AU        0.763867    0.642709    0.418208     0.007504
AU1734   AU        0.798642    0.606445    0.416960     0.007504
AU1735   AU        0.799856    0.640528    0.381602     0.007504
PT1736   PT        0.100715    0.675622    0.386298     0.004505
AU1737   AU        0.102250    0.714665    0.420823     0.007504
AU1738   AU        0.137382    0.676156    0.420161     0.007504
PT1739   PT        0.134639    0.712674    0.385300     0.004505
PT1740   PT        0.171624    0.673949    0.383188     0.004505
PT1741   PT        0.171592    0.711641    0.417546     0.004505
PT1742   PT        0.204788    0.673855    0.417382     0.004505
PT1743   PT        0.204785    0.711758    0.383810     0.004505
AU1744   AU        0.238191    0.675774    0.384499     0.007504
PT1745   PT        0.236586    0.709237    0.418292     0.004505
AU1746   AU        0.269095    0.675625    0.418747     0.007504
AU1747   AU        0.270183    0.710484    0.382682     0.007504
PT1748   PT        0.302263    0.673644    0.383532     0.004505
AU1749   AU        0.302246    0.710213    0.417706     0.007504
PT1750   PT        0.335618    0.675179    0.419897     0.004505
PT1751   PT        0.333995    0.710460    0.383133     0.004505
PT1752   PT        0.368169    0.673685    0.380602     0.004505
PT1753   PT        0.367779    0.709629    0.419023     0.004505
PT1754   PT        0.399529    0.674992    0.417640     0.004505
PT1755   PT        0.398491    0.708974    0.383531     0.004505
AU1756   AU        0.432648    0.674770    0.383086     0.007504
PT1757   PT        0.431874    0.709579    0.419096     0.004505
PT1758   PT        0.466029    0.675581    0.418552     0.004505
PT1759   PT        0.464075    0.710242    0.382880     0.004505
PT1760   PT        0.496751    0.675566    0.382528     0.004505
PT1761   PT        0.499595    0.710104    0.418224     0.004505
PT1762   PT        0.530612    0.674076    0.417740     0.004505
PT1763   PT        0.530112    0.710845    0.382224     0.004505
AU1764   AU        0.562735    0.675796    0.384369     0.007504
PT1765   PT        0.563043    0.709267    0.418378     0.004505
PT1766   PT        0.598220    0.676892    0.417209     0.004505
PT1767   PT        0.596838    0.710835    0.384382     0.004505
AU1768   AU        0.628935    0.676004    0.382288     0.007504
AU1769   AU        0.631675    0.712294    0.416121     0.007504
PT1770   PT        0.661898    0.676548    0.417390     0.004505
AU1771   AU        0.666518    0.711262    0.382728     0.007504
AU1772   AU        0.697605    0.674344    0.383649     0.007504
AU1773   AU        0.698712    0.712524    0.417525     0.007504
PT1774   PT        0.729511    0.676643    0.416365     0.004505
AU1775   AU        0.734139    0.711235    0.381387     0.007504
AU1776   AU        0.766529    0.673397    0.380133     0.007504
PT1777   PT        0.766225    0.707963    0.417426     0.004505
PT1778   PT        0.132959    0.747025    0.421600     0.004505
PT1779   PT        0.166529    0.745777    0.383932     0.004505
AU1780   AU        0.168284    0.784756    0.414224     0.007504
PT1781   PT        0.203377    0.746832    0.417220     0.004505
AU1782   AU        0.204352    0.783167    0.384871     0.007504
AU1783   AU        0.237069    0.744208    0.382974     0.007504
PT1784   PT        0.237090    0.780900    0.419914     0.004505
PT1785   PT        0.269788    0.743857    0.416789     0.004505
PT1786   PT        0.270049    0.781879    0.382646     0.004505
PT1787   PT        0.303439    0.745975    0.383422     0.004505
AU1788   AU        0.300802    0.780553    0.418526     0.007504
AU1789   AU        0.334507    0.744617    0.419418     0.007504
AU1790   AU        0.335441    0.781541    0.382962     0.007504
AU1791   AU        0.367578    0.746308    0.381963     0.007504
PT1792   PT        0.367384    0.778332    0.417003     0.004505
PT1793   PT        0.399311    0.744746    0.419068     0.004505
AU1794   AU        0.399761    0.779969    0.383008     0.007504
AU1795   AU        0.431961    0.747065    0.383245     0.007504
AU1796   AU        0.431362    0.780262    0.418767     0.007504
PT1797   PT        0.465345    0.746869    0.417551     0.004505
PT1798   PT        0.464338    0.782173    0.381288     0.004505
AU1799   AU        0.498172    0.744645    0.384203     0.007504
PT1800   PT        0.498531    0.781950    0.417349     0.004505
AU1801   AU        0.530688    0.746912    0.418475     0.007504
PT1802   PT        0.529719    0.781055    0.381418     0.004505
AU1803   AU        0.562262    0.744424    0.383608     0.007504
AU1804   AU        0.562692    0.781006    0.418012     0.007504
AU1805   AU        0.596517    0.746089    0.416473     0.007504
AU1806   AU        0.596252    0.781124    0.381447     0.007504
AU1807   AU        0.633866    0.746708    0.381929     0.007504
AU1808   AU        0.631139    0.782809    0.419150     0.007504
AU1809   AU        0.666469    0.747864    0.419251     0.007504
PT1810   PT        0.665330    0.782265    0.381592     0.004505
AU1811   AU        0.698671    0.746301    0.382659     0.007504
AU1812   AU        0.700710    0.783618    0.416301     0.007504
AU1813   AU        0.734161    0.745436    0.414866     0.007504
AU1814   AU        0.201756    0.820420    0.418190     0.007504
PT1815   PT        0.238334    0.815797    0.385675     0.004505
AU1816   AU        0.269693    0.817228    0.421188     0.007504
PT1817   PT        0.259027    0.882884    0.415616     0.004505
AU1818   AU        0.301597    0.815500    0.381534     0.007504
PT1819   PT        0.300131    0.852891    0.418949     0.004505
AU1820   AU        0.333304    0.817297    0.418673     0.007504
PT1821   PT        0.335232    0.851216    0.384321     0.004505
AU1822   AU        0.367464    0.816206    0.383352     0.007504
AU1823   AU        0.367943    0.852724    0.418772     0.007504
PT1824   PT        0.401146    0.815697    0.418375     0.004505
AU1825   AU        0.399793    0.851745    0.381867     0.007504
PT1826   PT        0.432743    0.817115    0.383766     0.004505
AU1827   AU        0.433885    0.849708    0.420183     0.007504
AU1828   AU        0.463883    0.814907    0.419734     0.007504
AU1829   AU        0.466452    0.852168    0.382603     0.007504
PT1830   PT        0.496517    0.815830    0.383274     0.004505
PT1831   PT        0.497240    0.849541    0.419403     0.004505
AU1832   AU        0.531367    0.815262    0.417565     0.007504
AU1833   AU        0.529089    0.852024    0.383244     0.007504
PT1834   PT        0.562947    0.816753    0.382994     0.004505
PT1835   PT        0.565401    0.852875    0.416457     0.004505
PT1836   PT        0.596823    0.816216    0.418682     0.004505
AU1837   AU        0.599970    0.854077    0.386379     0.007504
PT1838   PT        0.634023    0.819563    0.383955     0.004505
PT1839   PT        0.666491    0.815169    0.418525     0.004505
PT1840   PT        0.401770    0.888918    0.417750     0.004505
AU1841   AU        0.434617    0.889594    0.380252     0.007504
AU1842   AU        0.468994    0.887407    0.416710     0.007504
PT1843   PT        0.271803    0.071355    0.453841     0.004505
PT1844   PT        0.304133    0.071502    0.488440     0.004505
PT1845   PT        0.336057    0.068838    0.451381     0.004505
PT1846   PT        0.370764    0.036810    0.456027     0.004505
AU1847   AU        0.369098    0.073530    0.487974     0.007504
AU1848   AU        0.402236    0.037500    0.489699     0.007504
PT1849   PT        0.403096    0.073000    0.452326     0.004505
PT1850   PT        0.436309    0.034636    0.455699     0.004505
AU1851   AU        0.434026    0.073827    0.488760     0.007504
AU1852   AU        0.466941    0.036450    0.494588     0.007504
PT1853   PT        0.465405    0.073059    0.455578     0.004505
AU1854   AU        0.496956    0.037557    0.457217     0.007504
AU1855   AU        0.499026    0.072962    0.490452     0.007504
AU1856   AU        0.530082    0.073318    0.455382     0.007504
AU1857   AU        0.566013    0.070569    0.487708     0.007504
AU1858   AU        0.602249    0.073418    0.452844     0.007504
AU1859   AU        0.113066    0.080002    0.531370     0.007504
AU1860   AU        0.203356    0.104510    0.492805     0.007504
AU1861   AU        0.171061    0.139684    0.489111     0.007504
AU1862   AU        0.234892    0.109416    0.456434     0.007504
PT1863   PT        0.238452    0.145991    0.490654     0.004505
AU1864   AU        0.271693    0.108353    0.490011     0.007504
PT1865   PT        0.268974    0.144071    0.454707     0.004505
PT1866   PT        0.302565    0.109289    0.454553     0.004505
AU1867   AU        0.303794    0.147094    0.488618     0.007504
PT1868   PT        0.336311    0.105906    0.485759     0.004505
PT1869   PT        0.338192    0.147439    0.455739     0.004505
AU1870   AU        0.368918    0.109050    0.453675     0.007504
PT1871   PT        0.368171    0.151712    0.489070     0.004505
AU1872   AU        0.402211    0.111547    0.487221     0.007504
PT1873   PT        0.399352    0.148241    0.452896     0.004505
AU1874   AU        0.434023    0.110388    0.452382     0.007504
PT1875   PT        0.432740    0.147912    0.487618     0.004505
AU1876   AU        0.466404    0.109053    0.488896     0.007504
AU1877   AU        0.466618    0.144616    0.453248     0.007504
AU1878   AU        0.500420    0.109104    0.455728     0.007504
AU1879   AU        0.501341    0.146191    0.488995     0.007504
PT1880   PT        0.536729    0.107916    0.489759     0.004505
AU1881   AU        0.531447    0.147378    0.454192     0.007504
AU1882   AU        0.562947    0.108969    0.452651     0.007504
AU1883   AU        0.565423    0.148085    0.488444     0.007504
PT1884   PT        0.599297    0.110139    0.490916     0.004505
AU1885   AU        0.597745    0.144190    0.456665     0.007504
AU1886   AU        0.635523    0.108433    0.452700     0.007504
AU1887   AU        0.632351    0.142508    0.488716     0.007504
PT1888   PT        0.665084    0.106297    0.490385     0.004505
AU1889   AU        0.664957    0.146044    0.453516     0.007504
PT1890   PT        0.698386    0.143129    0.489317     0.004505
AU1891   AU        0.104600    0.212949    0.486652     0.007504
PT1892   PT        0.134661    0.176764    0.490739     0.004505
AU1893   AU        0.135964    0.216208    0.453236     0.007504
PT1894   PT        0.168903    0.177662    0.457404     0.004505
AU1895   AU        0.171052    0.214531    0.489727     0.007504
AU1896   AU        0.204680    0.180506    0.491342     0.007504
AU1897   AU        0.203318    0.217516    0.453706     0.007504
PT1898   PT        0.237878    0.182337    0.456023     0.004505
AU1899   AU        0.235872    0.219617    0.488355     0.007504
AU1900   AU        0.270926    0.182175    0.489675     0.007504
AU1901   AU        0.267882    0.218692    0.455078     0.007504
AU1902   AU        0.300816    0.180755    0.453592     0.007504
AU1903   AU        0.301221    0.219520    0.489448     0.007504
PT1904   PT        0.333818    0.183966    0.486361     0.004505
AU1905   AU        0.334374    0.218816    0.453660     0.007504
PT1906   PT        0.368274    0.184601    0.453168     0.004505
AU1907   AU        0.365873    0.219998    0.488697     0.007504
PT1908   PT        0.400678    0.186088    0.487393     0.004505
AU1909   AU        0.402473    0.220992    0.454582     0.007504
AU1910   AU        0.433598    0.182258    0.454145     0.007504
AU1911   AU        0.434456    0.219414    0.489665     0.007504
AU1912   AU        0.468338    0.181214    0.490194     0.007504
PT1913   PT        0.466796    0.217504    0.452146     0.004505
PT1914   PT        0.498564    0.181355    0.453361     0.004505
PT1915   PT        0.499705    0.220791    0.489097     0.004505
AU1916   AU        0.531618    0.184044    0.489555     0.007504
AU1917   AU        0.531232    0.219519    0.452779     0.007504
AU1918   AU        0.564752    0.185436    0.456001     0.007504
AU1919   AU        0.563974    0.221099    0.491440     0.007504
PT1920   PT        0.596127    0.183702    0.490747     0.004505
AU1921   AU        0.596637    0.218489    0.455257     0.007504
AU1922   AU        0.629222    0.182304    0.454467     0.007504
AU1923   AU        0.630160    0.216781    0.490917     0.007504
PT1924   PT        0.667397    0.179910    0.490267     0.004505
AU1925   AU        0.665515    0.217309    0.455941     0.007504
AU1926   AU        0.697350    0.179855    0.454996     0.007504
AU1927   AU        0.701596    0.216234    0.489873     0.007504
AU1928   AU        0.733809    0.178629    0.488869     0.007504
AU1929   AU        0.734258    0.215208    0.454210     0.007504
AU1930   AU        0.765367    0.216710    0.488196     0.007504
AU1931   AU        0.070246    0.289083    0.454139     0.007504
AU1932   AU        0.099708    0.252361    0.455019     0.007504
AU1933   AU        0.104009    0.284987    0.492283     0.007504
PT1934   PT        0.135737    0.251510    0.487926     0.004505
AU1935   AU        0.134771    0.288589    0.455656     0.007504
PT1936   PT        0.170834    0.251125    0.456555     0.004505
PT1937   PT        0.170224    0.288276    0.491912     0.004505
AU1938   AU        0.203648    0.253812    0.489034     0.007504
AU1939   AU        0.201928    0.288812    0.454260     0.007504
AU1940   AU        0.236851    0.255184    0.451244     0.007504
AU1941   AU        0.236183    0.288636    0.489409     0.007504
AU1942   AU        0.268165    0.253740    0.488797     0.007504
AU1943   AU        0.269201    0.289858    0.454150     0.007504
PT1944   PT        0.300499    0.253592    0.455392     0.004505
PT1945   PT        0.301203    0.288588    0.489462     0.004505
PT1946   PT        0.334363    0.255326    0.488060     0.004505
AU1947   AU        0.336079    0.289647    0.454665     0.007504
PT1948   PT        0.367591    0.254131    0.454601     0.004505
AU1949   AU        0.369357    0.289207    0.490037     0.007504
PT1950   PT        0.401339    0.256427    0.487801     0.004505
AU1951   AU        0.402589    0.289451    0.452238     0.007504
PT1952   PT        0.434424    0.253005    0.452924     0.004505
PT1953   PT        0.434526    0.289742    0.489575     0.004505
PT1954   PT        0.464932    0.254736    0.489628     0.004505
AU1955   AU        0.466641    0.288484    0.453719     0.007504
PT1956   PT        0.498624    0.253024    0.452571     0.004505
PT1957   PT        0.497654    0.289906    0.487636     0.004505
PT1958   PT        0.531638    0.255726    0.488480     0.004505
PT1959   PT        0.532536    0.287575    0.452888     0.004505
AU1960   AU        0.564406    0.254598    0.453899     0.007504
PT1961   PT        0.563810    0.289332    0.488706     0.004505
PT1962   PT        0.596955    0.253267    0.488083     0.004505
AU1963   AU        0.597101    0.289463    0.453888     0.007504
PT1964   PT        0.632512    0.253020    0.458386     0.004505
PT1965   PT        0.626579    0.290282    0.489341     0.004505
PT1966   PT        0.665647    0.250388    0.490788     0.004505
AU1967   AU        0.663112    0.286997    0.457786     0.007504
AU1968   AU        0.699437    0.254019    0.455732     0.007504
PT1969   PT        0.696562    0.289381    0.490671     0.004505
AU1970   AU        0.734282    0.251197    0.489646     0.007504
AU1971   AU        0.730141    0.290715    0.455653     0.007504
AU1972   AU        0.767618    0.251790    0.455010     0.007504
PT1973   PT        0.767641    0.286355    0.488599     0.004505
AU1974   AU        0.800543    0.288111    0.451222     0.007504
PT1975   PT        0.034922    0.323577    0.454917     0.004505
AU1976   AU        0.069581    0.356526    0.451087     0.007504
AU1977   AU        0.102310    0.322741    0.456039     0.007504
AU1978   AU        0.104153    0.359281    0.488538     0.007504
AU1979   AU        0.138579    0.324396    0.490782     0.007504
AU1980   AU        0.137664    0.359818    0.452224     0.007504
AU1981   AU        0.170899    0.324119    0.455795     0.007504
AU1982   AU        0.172040    0.359448    0.490144     0.007504
AU1983   AU        0.202364    0.321808    0.490543     0.007504
PT1984   PT        0.204035    0.359431    0.455126     0.004505
AU1985   AU        0.236391    0.322975    0.453962     0.007504
PT1986   PT        0.235763    0.359146    0.491297     0.004505
PT1987   PT        0.268795    0.323585    0.489792     0.004505
PT1988   PT        0.269744    0.358517    0.455060     0.004505
AU1989   AU        0.301398    0.324568    0.455898     0.007504
PT1990   PT        0.301222    0.359054    0.491228     0.004505
PT1991   PT        0.335591    0.324163    0.490462     0.004505
AU1992   AU        0.334997    0.359790    0.454586     0.007504
AU1993   AU        0.367786    0.324791    0.452188     0.007504
AU1994   AU        0.367782    0.359156    0.488228     0.007504
PT1995   PT        0.400486    0.324313    0.486966     0.004505
AU1996   AU        0.399991    0.360713    0.453089     0.007504
PT1997   PT        0.431762    0.325382    0.453365     0.004505
PT1998   PT        0.431638    0.360530    0.490209     0.004505
AU1999   AU        0.465224    0.325087    0.488408     0.007504
PT2000   PT        0.466403    0.360110    0.454775     0.004505
PT2001   PT        0.498854    0.324076    0.452496     0.004505
PT2002   PT        0.497116    0.359770    0.488429     0.004505
PT2003   PT        0.530993    0.324408    0.488782     0.004505
PT2004   PT        0.530227    0.359421    0.452710     0.004505
PT2005   PT        0.564649    0.321613    0.452634     0.004505
PT2006   PT        0.562039    0.359974    0.489424     0.004505
PT2007   PT        0.596300    0.325009    0.489425     0.004505
AU2008   AU        0.597169    0.359206    0.453212     0.007504
AU2009   AU        0.630915    0.322407    0.453731     0.007504
AU2010   AU        0.628553    0.359343    0.489451     0.007504
AU2011   AU        0.661204    0.324094    0.489888     0.007504
AU2012   AU        0.660964    0.359663    0.453051     0.007504
AU2013   AU        0.694567    0.326075    0.455307     0.007504
PT2014   PT        0.694284    0.358882    0.490643     0.004505
PT2015   PT        0.730936    0.321125    0.493004     0.004505
AU2016   AU        0.731226    0.359197    0.455299     0.007504
PT2017   PT        0.765619    0.323404    0.451439     0.004505
AU2018   AU        0.764810    0.356986    0.490041     0.007504
AU2019   AU        0.798787    0.322951    0.488783     0.007504
AU2020   AU        0.799043    0.359559    0.452865     0.007504
PT2021   PT        0.035601    0.394078    0.452582     0.004505
AU2022   AU        0.032730    0.426054    0.491022     0.007504
AU2023   AU        0.070816    0.394749    0.488130     0.007504
AU2024   AU        0.070450    0.428491    0.453113     0.007504
AU2025   AU        0.105528    0.393932    0.454793     0.007504
AU2026   AU        0.104287    0.430666    0.487910     0.007504
PT2027   PT        0.139864    0.395914    0.488948     0.004505
AU2028   AU        0.136953    0.430973    0.454214     0.007504
AU2029   AU        0.171237    0.394754    0.453827     0.007504
AU2030   AU        0.172077    0.429677    0.487224     0.007504
PT2031   PT        0.203339    0.394785    0.488532     0.004505
PT2032   PT        0.204779    0.432502    0.453812     0.004505
PT2033   PT        0.237253    0.393462    0.454307     0.004505
PT2034   PT        0.235787    0.429938    0.488877     0.004505
AU2035   AU        0.269646    0.394696    0.490329     0.007504
PT2036   PT        0.269851    0.431324    0.454510     0.004505
AU2037   AU        0.299442    0.394740    0.452964     0.007504
PT2038   PT        0.302635    0.428313    0.488880     0.004505
PT2039   PT        0.332582    0.393237    0.489553     0.004505
PT2040   PT        0.334892    0.430126    0.453911     0.004505
PT2041   PT        0.366871    0.393195    0.453193     0.004505
PT2042   PT        0.366739    0.428869    0.488920     0.004505
PT2043   PT        0.400436    0.395344    0.489505     0.004505
PT2044   PT        0.400537    0.429352    0.453986     0.004505
PT2045   PT        0.434081    0.394510    0.452154     0.004505
PT2046   PT        0.432841    0.429574    0.489883     0.004505
PT2047   PT        0.466086    0.394401    0.489902     0.004505
PT2048   PT        0.464642    0.431069    0.453895     0.004505
AU2049   AU        0.498858    0.396349    0.453965     0.007504
AU2050   AU        0.497828    0.430013    0.488146     0.007504
PT2051   PT        0.530361    0.394768    0.488250     0.004505
AU2052   AU        0.530320    0.429328    0.455648     0.007504
PT2053   PT        0.564074    0.394977    0.453938     0.004505
PT2054   PT        0.564606    0.429764    0.487731     0.004505
PT2055   PT        0.595441    0.395058    0.488675     0.004505
PT2056   PT        0.596657    0.430380    0.454216     0.004505
PT2057   PT        0.629039    0.395284    0.455840     0.004505
PT2058   PT        0.627120    0.430380    0.488888     0.004505
AU2059   AU        0.663481    0.394783    0.488104     0.007504
PT2060   PT        0.662152    0.430875    0.452785     0.004505
AU2061   AU        0.694703    0.392904    0.452958     0.007504
PT2062   PT        0.692214    0.430673    0.488304     0.004505
PT2063   PT        0.728547    0.392058    0.490394     0.004505
PT2064   PT        0.726497    0.427400    0.453895     0.004505
PT2065   PT        0.765047    0.392487    0.454089     0.004505
AU2066   AU        0.761886    0.428013    0.490978     0.007504
AU2067   AU        0.798495    0.392206    0.488608     0.007504
AU2068   AU        0.799405    0.427235    0.451195     0.007504
AU2069   AU        0.832464    0.392097    0.453026     0.007504
AU2070   AU        0.830272    0.426170    0.485621     0.007504
AU2071   AU        0.037458    0.463653    0.454873     0.007504
AU2072   AU        0.034012    0.499253    0.488290     0.007504
AU2073   AU        0.069277    0.464337    0.489543     0.007504
AU2074   AU        0.068148    0.500728    0.454853     0.007504
PT2075   PT        0.102837    0.464298    0.453349     0.004505
PT2076   PT        0.101532    0.498271    0.489914     0.004505
AU2077   AU        0.138262    0.465850    0.488489     0.007504
AU2078   AU        0.138462    0.499786    0.452450     0.007504
PT2079   PT        0.172013    0.464941    0.454223     0.004505
PT2080   PT        0.171665    0.500100    0.487896     0.004505
PT2081   PT        0.203484    0.464980    0.489487     0.004505
AU2082   AU        0.203249    0.498490    0.453380     0.007504
AU2083   AU        0.236717    0.466310    0.452676     0.007504
PT2084   PT        0.237126    0.499488    0.488118     0.004505
PT2085   PT        0.269933    0.464825    0.488496     0.004505
PT2086   PT        0.269567    0.499801    0.453963     0.004505
PT2087   PT        0.302201    0.465330    0.452323     0.004505
PT2088   PT        0.302498    0.499202    0.486499     0.004505
PT2089   PT        0.334950    0.465460    0.488483     0.004505
PT2090   PT        0.333891    0.500689    0.452086     0.004505
PT2091   PT        0.367778    0.464223    0.455058     0.004505
PT2092   PT        0.367352    0.499284    0.487346     0.004505
AU2093   AU        0.399850    0.463353    0.488698     0.007504
PT2094   PT        0.399364    0.500014    0.452409     0.004505
PT2095   PT        0.431908    0.464321    0.452857     0.004505
PT2096   PT        0.432404    0.498656    0.489049     0.004505
PT2097   PT        0.465798    0.465153    0.488255     0.004505
PT2098   PT        0.464758    0.501358    0.453314     0.004505
PT2099   PT        0.497075    0.466926    0.454253     0.004505
PT2100   PT        0.496893    0.500448    0.489827     0.004505
PT2101   PT        0.530636    0.464444    0.489138     0.004505
AU2102   AU        0.532419    0.500027    0.454925     0.007504
AU2103   AU        0.563915    0.465265    0.453063     0.007504
AU2104   AU        0.564470    0.500958    0.489709     0.007504
PT2105   PT        0.595147    0.465253    0.487927     0.004505
PT2106   PT        0.598283    0.500006    0.450865     0.004505
AU2107   AU        0.629209    0.465795    0.451887     0.007504
AU2108   AU        0.627825    0.500470    0.488299     0.007504
PT2109   PT        0.659868    0.464862    0.488346     0.004505
PT2110   PT        0.662086    0.498324    0.453612     0.004505
PT2111   PT        0.695619    0.464891    0.452903     0.004505
PT2112   PT        0.694414    0.499760    0.487452     0.004505
PT2113   PT        0.726809    0.463361    0.489257     0.004505
PT2114   PT        0.728416    0.501468    0.454753     0.004505
AU2115   AU        0.764299    0.463976    0.456585     0.007504
AU2116   AU        0.762568    0.500258    0.490220     0.007504
PT2117   PT        0.796933    0.461797    0.490300     0.004505
AU2118   AU        0.797546    0.499505    0.455346     0.007504
PT2119   PT        0.835412    0.462491    0.453596     0.004505
PT2120   PT        0.831962    0.497647    0.489353     0.004505
AU2121   AU        0.000667    0.501206    0.451871     0.007504
AU2122   AU        0.071028    0.535690    0.490164     0.007504
AU2123   AU        0.070162    0.571812    0.454394     0.007504
AU2124   AU        0.103156    0.532728    0.456100     0.007504
AU2125   AU        0.102594    0.571982    0.489828     0.007504
AU2126   AU        0.137378    0.534319    0.488577     0.007504
AU2127   AU        0.138466    0.571003    0.452519     0.007504
PT2128   PT        0.172035    0.535951    0.452097     0.004505
PT2129   PT        0.172146    0.569563    0.487078     0.004505
PT2130   PT        0.204477    0.535936    0.489234     0.004505
AU2131   AU        0.205369    0.569811    0.453622     0.007504
PT2132   PT        0.235939    0.535734    0.453405     0.004505
PT2133   PT        0.237585    0.569298    0.488532     0.004505
AU2134   AU        0.269791    0.534936    0.487023     0.007504
PT2135   PT        0.268641    0.569281    0.451044     0.004505
PT2136   PT        0.302599    0.536664    0.453071     0.004505
PT2137   PT        0.302219    0.571405    0.487691     0.004505
AU2138   AU        0.333319    0.535807    0.488386     0.007504
PT2139   PT        0.334194    0.570327    0.453219     0.004505
PT2140   PT        0.365241    0.533991    0.452544     0.004505
PT2141   PT        0.366209    0.571133    0.486659     0.004505
PT2142   PT        0.400044    0.535442    0.488870     0.004505
PT2143   PT        0.398009    0.570930    0.454163     0.004505
PT2144   PT        0.431543    0.536303    0.454525     0.004505
PT2145   PT        0.431754    0.572146    0.487944     0.004505
AU2146   AU        0.464653    0.535413    0.488153     0.007504
AU2147   AU        0.464907    0.570901    0.453964     0.007504
AU2148   AU        0.497802    0.535600    0.453791     0.007504
PT2149   PT        0.498453    0.570461    0.488179     0.004505
PT2150   PT        0.530127    0.534491    0.487744     0.004505
PT2151   PT        0.530690    0.570288    0.453593     0.004505
AU2152   AU        0.563402    0.537251    0.453265     0.007504
PT2153   PT        0.562452    0.570287    0.488350     0.004505
PT2154   PT        0.596380    0.535803    0.487417     0.004505
PT2155   PT        0.597385    0.568866    0.453253     0.004505
PT2156   PT        0.629320    0.533785    0.451991     0.004505
PT2157   PT        0.629017    0.570226    0.488270     0.004505
PT2158   PT        0.660905    0.536305    0.488291     0.004505
AU2159   AU        0.660794    0.571555    0.452940     0.007504
AU2160   AU        0.694191    0.535524    0.452623     0.007504
AU2161   AU        0.693215    0.570334    0.488728     0.007504
PT2162   PT        0.725744    0.535744    0.490581     0.004505
AU2163   AU        0.729918    0.568982    0.454089     0.007504
PT2164   PT        0.765379    0.536146    0.453605     0.004505
AU2165   AU        0.763147    0.570690    0.489850     0.007504
AU2166   AU        0.797898    0.535651    0.488886     0.007504
PT2167   PT        0.797832    0.573771    0.454633     0.004505
AU2168   AU        0.830333    0.532853    0.453264     0.007504
AU2169   AU        0.068641    0.605484    0.492880     0.007504
AU2170   AU        0.068520    0.642787    0.457734     0.007504
AU2171   AU        0.102845    0.605125    0.453999     0.007504
AU2172   AU        0.104233    0.638797    0.487949     0.007504
PT2173   PT        0.138200    0.605018    0.489292     0.004505
AU2174   AU        0.138156    0.639059    0.452355     0.007504
PT2175   PT        0.170058    0.605765    0.453422     0.004505
AU2176   AU        0.168380    0.641460    0.488235     0.007504
AU2177   AU        0.202067    0.606357    0.488652     0.007504
AU2178   AU        0.201907    0.639369    0.454771     0.007504
AU2179   AU        0.236858    0.606219    0.451776     0.007504
AU2180   AU        0.236117    0.639687    0.487831     0.007504
PT2181   PT        0.270014    0.604600    0.488841     0.004505
PT2182   PT        0.269099    0.639143    0.451587     0.004505
PT2183   PT        0.303262    0.605447    0.452624     0.004505
PT2184   PT        0.301606    0.639991    0.488541     0.004505
PT2185   PT        0.333158    0.606379    0.488924     0.004505
AU2186   AU        0.334307    0.640762    0.452568     0.007504
PT2187   PT        0.367249    0.606107    0.452285     0.004505
PT2188   PT        0.367282    0.639582    0.487265     0.004505
PT2189   PT        0.399103    0.605099    0.488366     0.004505
PT2190   PT        0.399295    0.642291    0.453816     0.004505
PT2191   PT        0.431303    0.604979    0.452615     0.004505
PT2192   PT        0.432146    0.638769    0.488790     0.004505
PT2193   PT        0.465324    0.605675    0.488388     0.004505
PT2194   PT        0.464938    0.639755    0.454654     0.004505
PT2195   PT        0.496842    0.606671    0.453942     0.004505
PT2196   PT        0.498337    0.639790    0.488964     0.004505
PT2197   PT        0.529989    0.605178    0.487782     0.004505
PT2198   PT        0.530408    0.641202    0.452063     0.004505
AU2199   AU        0.563770    0.606230    0.453794     0.007504
PT2200   PT        0.562742    0.640473    0.487890     0.004505
PT2201   PT        0.594995    0.605836    0.489501     0.004505
PT2202   PT        0.596914    0.639361    0.452110     0.004505
AU2203   AU        0.629430    0.605751    0.452718     0.007504
AU2204   AU        0.629057    0.642993    0.488118     0.007504
PT2205   PT        0.661405    0.607165    0.486892     0.004505
AU2206   AU        0.661345    0.640308    0.451959     0.007504
AU2207   AU        0.693495    0.604085    0.453005     0.007504
AU2208   AU        0.694323    0.641250    0.489131     0.007504
PT2209   PT        0.725523    0.603931    0.489532     0.004505
PT2210   PT        0.728941    0.640239    0.453597     0.004505
AU2211   AU        0.761468    0.606626    0.452426     0.007504
PT2212   PT        0.758930    0.639950    0.489456     0.004505
AU2213   AU        0.794536    0.609562    0.490185     0.007504
PT2214   PT        0.833705    0.636667    0.410960     0.004505
AU2215   AU        0.105051    0.677236    0.454716     0.007504
PT2216   PT        0.101766    0.710874    0.490140     0.004505
AU2217   AU        0.135973    0.675284    0.487085     0.007504
PT2218   PT        0.137385    0.710577    0.454231     0.004505
AU2219   AU        0.169884    0.675923    0.452407     0.007504
PT2220   PT        0.168389    0.708921    0.491136     0.004505
AU2221   AU        0.204151    0.675549    0.489488     0.007504
PT2222   PT        0.203610    0.708972    0.454164     0.004505
PT2223   PT        0.237012    0.673507    0.452697     0.004505
PT2224   PT        0.234903    0.708914    0.490027     0.004505
PT2225   PT        0.267571    0.674278    0.488680     0.004505
PT2226   PT        0.269466    0.709870    0.453961     0.004505
PT2227   PT        0.301439    0.674903    0.453688     0.004505
AU2228   AU        0.301673    0.710872    0.489107     0.007504
PT2229   PT        0.334669    0.673965    0.487556     0.004505
PT2230   PT        0.333375    0.710800    0.455345     0.004505
PT2231   PT        0.367399    0.675913    0.453044     0.004505
AU2232   AU        0.365757    0.710481    0.488458     0.007504
PT2233   PT        0.398659    0.673341    0.488931     0.004505
PT2234   PT        0.400171    0.709783    0.454541     0.004505
PT2235   PT        0.433299    0.674651    0.454055     0.004505
AU2236   AU        0.433199    0.712072    0.486542     0.007504
PT2237   PT        0.463390    0.674322    0.488651     0.004505
PT2238   PT        0.465551    0.710930    0.451565     0.004505
PT2239   PT        0.497348    0.675738    0.454313     0.004505
PT2240   PT        0.496476    0.709937    0.490178     0.004505
AU2241   AU        0.529737    0.675564    0.488234     0.007504
AU2242   AU        0.531733    0.709742    0.452832     0.007504
PT2243   PT        0.564513    0.674279    0.452803     0.004505
PT2244   PT        0.563188    0.709841    0.487784     0.004505
PT2245   PT        0.596115    0.676090    0.487557     0.004505
AU2246   AU        0.597835    0.710776    0.453285     0.007504
AU2247   AU        0.631451    0.677243    0.454391     0.007504
PT2248   PT        0.628849    0.710797    0.487772     0.004505
AU2249   AU        0.662984    0.677832    0.486564     0.007504
AU2250   AU        0.663095    0.713787    0.453256     0.007504
PT2251   PT        0.696165    0.676302    0.452094     0.004505
AU2252   AU        0.698103    0.711751    0.487246     0.007504
PT2253   PT        0.729030    0.674257    0.486623     0.004505
AU2254   AU        0.730243    0.711439    0.452082     0.007504
AU2255   AU        0.765045    0.674624    0.456341     0.007504
PT2256   PT        0.763665    0.711456    0.490422     0.004505
AU2257   AU        0.135069    0.748081    0.491016     0.007504
PT2258   PT        0.170961    0.745234    0.453565     0.004505
AU2259   AU        0.170103    0.785167    0.488349     0.007504
AU2260   AU        0.203119    0.747297    0.490241     0.007504
AU2261   AU        0.202061    0.784891    0.450987     0.007504
AU2262   AU        0.233264    0.744771    0.454007     0.007504
PT2263   PT        0.234612    0.781399    0.487666     0.004505
PT2264   PT        0.267125    0.745803    0.488784     0.004505
PT2265   PT        0.268512    0.781113    0.455333     0.004505
AU2266   AU        0.300282    0.743619    0.453908     0.007504
PT2267   PT        0.303614    0.781398    0.488656     0.004505
PT2268   PT        0.332309    0.745539    0.488537     0.004505
PT2269   PT        0.333183    0.781152    0.454314     0.004505
AU2270   AU        0.367368    0.745399    0.454679     0.007504
AU2271   AU        0.365828    0.780024    0.488455     0.007504
AU2272   AU        0.399776    0.746537    0.487839     0.007504
AU2273   AU        0.398241    0.783152    0.455125     0.007504
PT2274   PT        0.433583    0.745323    0.451984     0.004505
AU2275   AU        0.431173    0.781028    0.488984     0.007504
AU2276   AU        0.464463    0.744979    0.489401     0.007504
PT2277   PT        0.465479    0.779494    0.452687     0.004505
PT2278   PT        0.497358    0.744599    0.453382     0.004505
PT2279   PT        0.497470    0.782017    0.489414     0.004505
AU2280   AU        0.530453    0.745434    0.488440     0.007504
PT2281   PT        0.529249    0.779191    0.454485     0.004505
PT2282   PT        0.563905    0.746100    0.452324     0.004505
PT2283   PT        0.562932    0.783478    0.490488     0.004505
AU2284   AU        0.595620    0.745997    0.486607     0.007504
AU2285   AU        0.595715    0.782837    0.454056     0.007504
PT2286   PT        0.630085    0.745583    0.453928     0.004505
PT2287   PT        0.631718    0.782995    0.487871     0.004505
PT2288   PT        0.660872    0.745249    0.488623     0.004505
AU2289   AU        0.665303    0.781805    0.453384     0.007504
PT2290   PT        0.699395    0.748318    0.454997     0.004505
AU2291   AU        0.699554    0.783102    0.488366     0.007504
AU2292   AU        0.731508    0.745667    0.491813     0.007504
PT2293   PT        0.202870    0.821266    0.489411     0.004505
PT2294   PT        0.236199    0.819462    0.452771     0.004505
PT2295   PT        0.268821    0.816493    0.489513     0.004505
PT2296   PT        0.271589    0.856696    0.456352     0.004505
PT2297   PT        0.303484    0.819865    0.454752     0.004505
PT2298   PT        0.304420    0.858410    0.491387     0.004505
AU2299   AU        0.335843    0.818078    0.488085     0.007504
AU2300   AU        0.334535    0.857576    0.452775     0.007504
AU2301   AU        0.365479    0.816256    0.452327     0.007504
PT2302   PT        0.368429    0.852663    0.488839     0.004505
AU2303   AU        0.399816    0.817574    0.490305     0.007504
AU2304   AU        0.400185    0.850201    0.453961     0.007504
PT2305   PT        0.432628    0.815603    0.454989     0.004505
AU2306   AU        0.431930    0.853222    0.491312     0.007504
AU2307   AU        0.465809    0.816344    0.489053     0.007504
PT2308   PT        0.464266    0.851723    0.456138     0.004505
PT2309   PT        0.499359    0.813665    0.453575     0.004505
AU2310   AU        0.499833    0.853967    0.486642     0.007504
PT2311   PT        0.533092    0.816341    0.490438     0.004505
AU2312   AU        0.531149    0.853610    0.451771     0.007504
AU2313   AU        0.563758    0.819905    0.454653     0.007504
AU2314   AU        0.566322    0.854743    0.489903     0.007504
AU2315   AU        0.597407    0.819290    0.489003     0.007504
PT2316   PT        0.595299    0.860018    0.453174     0.004505
PT2317   PT        0.628619    0.821453    0.455612     0.004505
AU2318   AU        0.666918    0.818301    0.488035     0.007504
AU2319   AU        0.369122    0.891052    0.453906     0.007504
PT2320   PT        0.402820    0.890636    0.490714     0.004505
PT2321   PT        0.434026    0.890840    0.454590     0.004505
AU2322   AU        0.465660    0.892692    0.489838     0.007504
AU2323   AU        0.497044    0.891103    0.453277     0.007504
PT2324   PT        0.218794    0.060753    0.505831     0.004505
PT2325   PT        0.304452    0.075263    0.558621     0.004505
AU2326   AU        0.337934    0.074286    0.524596     0.007504
AU2327   AU        0.330683    0.003075    0.531417     0.007504
AU2328   AU        0.400232    0.076374    0.522881     0.007504
PT2329   PT        0.458655    0.000714    0.524121     0.004505
AU2330   AU        0.434044    0.077352    0.556122     0.007504
AU2331   AU        0.467065    0.076412    0.525847     0.007504
PT2332   PT        0.499930    0.070920    0.560322     0.004505
PT2333   PT        0.531907    0.075005    0.522999     0.004505
AU2334   AU        0.564858    0.073062    0.559202     0.007504
AU2335   AU        0.598762    0.071294    0.525811     0.007504
AU2336   AU        0.202909    0.141581    0.524084     0.007504
AU2337   AU        0.235530    0.105518    0.525461     0.007504
AU2338   AU        0.235597    0.145110    0.560681     0.007504
PT2339   PT        0.270855    0.107653    0.563369     0.004505
AU2340   AU        0.268419    0.145243    0.525250     0.007504
PT2341   PT        0.305019    0.111023    0.523628     0.004505
AU2342   AU        0.304436    0.146183    0.559558     0.007504
AU2343   AU        0.337933    0.110922    0.558405     0.007504
AU2344   AU        0.336215    0.148076    0.521256     0.007504
PT2345   PT        0.370941    0.113589    0.523715     0.004505
AU2346   AU        0.369252    0.148158    0.558397     0.007504
PT2347   PT        0.400760    0.110388    0.560682     0.004505
AU2348   AU        0.401318    0.149345    0.523449     0.007504
AU2349   AU        0.433875    0.112714    0.521668     0.007504
AU2350   AU        0.433530    0.144974    0.559070     0.007504
PT2351   PT        0.468517    0.110526    0.559258     0.004505
AU2352   AU        0.467530    0.144393    0.524884     0.007504
PT2353   PT        0.498735    0.110646    0.523699     0.004505
AU2354   AU        0.500296    0.145521    0.558753     0.007504
PT2355   PT        0.531094    0.109398    0.560393     0.004505
AU2356   AU        0.532698    0.144746    0.523953     0.007504
AU2357   AU        0.565430    0.110065    0.524268     0.007504
PT2358   PT        0.567724    0.143680    0.559444     0.004505
AU2359   AU        0.598816    0.108492    0.561797     0.007504
PT2360   PT        0.597763    0.145520    0.522485     0.004505
PT2361   PT        0.630388    0.107039    0.525524     0.004505
AU2362   AU        0.631036    0.142656    0.562084     0.007504
AU2363   AU        0.663023    0.142330    0.523842     0.007504
AU2364   AU        0.137940    0.213562    0.523954     0.007504
AU2365   AU        0.168053    0.177698    0.523710     0.007504
AU2366   AU        0.168959    0.215550    0.560898     0.007504
AU2367   AU        0.203185    0.181775    0.558242     0.007504
PT2368   PT        0.203542    0.218805    0.524066     0.004505
AU2369   AU        0.236764    0.180764    0.525361     0.007504
PT2370   PT        0.238372    0.218411    0.560280     0.004505
PT2371   PT        0.269171    0.180939    0.559080     0.004505
AU2372   AU        0.269197    0.218681    0.522636     0.007504
AU2373   AU        0.304663    0.183467    0.524056     0.007504
AU2374   AU        0.301410    0.217818    0.559508     0.007504
PT2375   PT        0.335568    0.182817    0.561216     0.004505
AU2376   AU        0.335289    0.220276    0.522720     0.007504
PT2377   PT        0.366947    0.186797    0.524188     0.004505
PT2378   PT        0.367873    0.221548    0.558306     0.004505
AU2379   AU        0.401506    0.183213    0.559086     0.007504
PT2380   PT        0.400842    0.221288    0.522162     0.004505
PT2381   PT        0.435049    0.183872    0.522681     0.004505
AU2382   AU        0.434338    0.217263    0.560329     0.007504
AU2383   AU        0.466516    0.183431    0.561272     0.007504
AU2384   AU        0.466432    0.219669    0.524540     0.007504
AU2385   AU        0.499503    0.182685    0.526483     0.007504
PT2386   PT        0.499515    0.218270    0.562127     0.004505
PT2387   PT        0.532324    0.180947    0.560210     0.004505
AU2388   AU        0.531569    0.219075    0.526626     0.007504
AU2389   AU        0.563668    0.182290    0.526133     0.007504
PT2390   PT        0.562329    0.217836    0.562427     0.004505
AU2391   AU        0.599483    0.183117    0.559868     0.007504
AU2392   AU        0.595740    0.218282    0.524763     0.007504
AU2393   AU        0.632363    0.181551    0.527122     0.007504
AU2394   AU        0.630409    0.216981    0.561099     0.007504
PT2395   PT        0.666713    0.179381    0.561309     0.004505
AU2396   AU        0.665567    0.214852    0.525453     0.007504
PT2397   PT        0.701290    0.178439    0.524834     0.004505
AU2398   AU        0.701347    0.213789    0.556946     0.007504
AU2399   AU        0.736355    0.216203    0.524720     0.007504
AU2400   AU        0.071176    0.282651    0.527467     0.007504
AU2401   AU        0.105265    0.246128    0.524326     0.007504
AU2402   AU        0.104338    0.284456    0.556250     0.007504
PT2403   PT        0.138634    0.251647    0.559511     0.004505
AU2404   AU        0.138854    0.289059    0.524540     0.007504
AU2405   AU        0.170109    0.252800    0.525627     0.007504
PT2406   PT        0.172670    0.290631    0.559465     0.004505
AU2407   AU        0.203567    0.252068    0.560147     0.007504
AU2408   AU        0.203167    0.288877    0.524583     0.007504
AU2409   AU        0.236045    0.252525    0.525645     0.007504
PT2410   PT        0.235910    0.291290    0.559121     0.004505
AU2411   AU        0.270089    0.252779    0.560406     0.007504
AU2412   AU        0.268416    0.288431    0.523085     0.007504
AU2413   AU        0.302311    0.256214    0.525652     0.007504
PT2414   PT        0.303247    0.289439    0.560053     0.004505
AU2415   AU        0.336599    0.253004    0.558519     0.007504
PT2416   PT        0.334730    0.289830    0.524176     0.004505
AU2417   AU        0.367587    0.254738    0.522499     0.007504
PT2418   PT        0.366182    0.289878    0.558852     0.004505
PT2419   PT        0.400224    0.253800    0.558165     0.004505
PT2420   PT        0.401458    0.289878    0.524422     0.004505
AU2421   AU        0.433155    0.255047    0.523010     0.007504
PT2422   PT        0.433588    0.289756    0.558949     0.004505
PT2423   PT        0.466395    0.254373    0.557442     0.004505
AU2424   AU        0.466594    0.291682    0.525227     0.007504
PT2425   PT        0.497986    0.253996    0.523529     0.004505
PT2426   PT        0.498314    0.290533    0.558976     0.004505
AU2427   AU        0.529902    0.253553    0.562271     0.007504
PT2428   PT        0.531221    0.289623    0.525657     0.004505
PT2429   PT        0.563540    0.255861    0.525027     0.004505
AU2430   AU        0.563294    0.290230    0.558439     0.007504
PT2431   PT        0.595739    0.254976    0.559711     0.004505
AU2432   AU        0.595855    0.291541    0.524640     0.007504
AU2433   AU        0.628464    0.254181    0.525243     0.007504
PT2434   PT        0.629558    0.290999    0.560331     0.004505
PT2435   PT        0.661210    0.252786    0.558326     0.004505
PT2436   PT        0.661780    0.288828    0.524895     0.004505
AU2437   AU        0.700846    0.253279    0.522940     0.007504
AU2438   AU        0.696695    0.288641    0.559952     0.007504
AU2439   AU        0.734358    0.252405    0.557896     0.007504
AU2440   AU        0.732898    0.289349    0.522246     0.007504
AU2441   AU        0.765670    0.255237    0.524651     0.007504
AU2442   AU        0.762655    0.290053    0.560627     0.007504
AU2443   AU        0.795454    0.291303    0.525970     0.007504
PT2444   PT        0.069676    0.319548    0.561874     0.004505
PT2445   PT        0.071034    0.359606    0.524150     0.004505
AU2446   AU        0.103676    0.322060    0.525402     0.007504
PT2447   PT        0.104806    0.359348    0.559697     0.004505
AU2448   AU        0.136053    0.323738    0.558383     0.007504
PT2449   PT        0.137444    0.360115    0.523358     0.004505
PT2450   PT        0.171279    0.325832    0.525323     0.004505
PT2451   PT        0.172167    0.359561    0.558905     0.004505
AU2452   AU        0.204638    0.326320    0.557731     0.007504
AU2453   AU        0.204032    0.359820    0.523882     0.007504
AU2454   AU        0.236676    0.325309    0.524175     0.007504
AU2455   AU        0.237899    0.360524    0.560168     0.007504
AU2456   AU        0.269367    0.324062    0.558423     0.007504
PT2457   PT        0.269047    0.361046    0.524857     0.004505
PT2458   PT        0.302741    0.324845    0.523957     0.004505
AU2459   AU        0.301516    0.358475    0.558283     0.007504
PT2460   PT        0.334434    0.324057    0.559134     0.004505
AU2461   AU        0.335409    0.358935    0.524584     0.007504
PT2462   PT        0.368558    0.325974    0.522687     0.004505
PT2463   PT        0.368187    0.360165    0.559913     0.004505
PT2464   PT        0.400356    0.323714    0.559759     0.004505
AU2465   AU        0.398930    0.358915    0.523702     0.007504
AU2466   AU        0.433485    0.324901    0.524114     0.007504
AU2467   AU        0.431018    0.358549    0.559243     0.007504
PT2468   PT        0.464744    0.327670    0.559423     0.004505
PT2469   PT        0.465691    0.360184    0.525205     0.004505
PT2470   PT        0.498781    0.325550    0.522727     0.004505
PT2471   PT        0.498437    0.361153    0.559459     0.004505
PT2472   PT        0.531096    0.324456    0.558547     0.004505
PT2473   PT        0.530596    0.361493    0.524499     0.004505
PT2474   PT        0.563735    0.324194    0.525042     0.004505
PT2475   PT        0.563034    0.360029    0.558611     0.004505
AU2476   AU        0.597772    0.323929    0.558485     0.007504
AU2477   AU        0.595182    0.361991    0.525063     0.007504
PT2478   PT        0.628192    0.326448    0.524597     0.004505
PT2479   PT        0.628266    0.358622    0.560978     0.004505
PT2480   PT        0.660178    0.325070    0.559132     0.004505
AU2481   AU        0.661521    0.360012    0.525399     0.007504
AU2482   AU        0.694212    0.326354    0.526808     0.007504
PT2483   PT        0.693531    0.360911    0.558949     0.004505
AU2484   AU        0.727233    0.323225    0.560855     0.007504
AU2485   AU        0.730357    0.356733    0.525904     0.007504
AU2486   AU        0.766877    0.322320    0.524248     0.007504
AU2487   AU        0.763218    0.357994    0.559997     0.007504
AU2488   AU        0.840966    0.340467    0.542879     0.007504
PT2489   PT        0.798292    0.358103    0.525679     0.004505
PT2490   PT        0.068967    0.394276    0.558985     0.004505
AU2491   AU        0.070228    0.429108    0.521930     0.007504
AU2492   AU        0.104002    0.394948    0.522394     0.007504
AU2493   AU        0.102504    0.427581    0.558332     0.007504
PT2494   PT        0.137689    0.397589    0.558624     0.004505
AU2495   AU        0.138132    0.431797    0.524547     0.007504
AU2496   AU        0.171765    0.393560    0.525855     0.007504
PT2497   PT        0.170975    0.431028    0.559296     0.004505
PT2498   PT        0.204832    0.394190    0.559913     0.004505
PT2499   PT        0.203332    0.429881    0.523475     0.004505
PT2500   PT        0.234925    0.396062    0.523945     0.004505
PT2501   PT        0.237842    0.431407    0.558481     0.004505
PT2502   PT        0.269493    0.396976    0.558130     0.004505
AU2503   AU        0.270108    0.428902    0.522952     0.007504
PT2504   PT        0.302914    0.395358    0.523931     0.004505
PT2505   PT        0.301193    0.431376    0.558639     0.004505
PT2506   PT        0.334321    0.394219    0.559370     0.004505
PT2507   PT        0.334015    0.429573    0.524585     0.004505
PT2508   PT        0.366685    0.397319    0.524652     0.004505
PT2509   PT        0.367457    0.429600    0.560408     0.004505
PT2510   PT        0.400448    0.394380    0.558980     0.004505
PT2511   PT        0.400424    0.430755    0.523916     0.004505
AU2512   AU        0.432245    0.394591    0.523702     0.007504
AU2513   AU        0.432387    0.430426    0.558263     0.007504
AU2514   AU        0.464087    0.395890    0.559185     0.007504
AU2515   AU        0.466440    0.432483    0.522912     0.007504
PT2516   PT        0.497770    0.396680    0.524190     0.004505
AU2517   AU        0.496279    0.431179    0.559410     0.007504
PT2518   PT        0.530869    0.395442    0.559386     0.004505
AU2519   AU        0.530865    0.429897    0.524434     0.007504
PT2520   PT        0.563993    0.395612    0.522385     0.004505
PT2521   PT        0.563798    0.430333    0.559680     0.004505
AU2522   AU        0.595131    0.396027    0.559737     0.007504
AU2523   AU        0.596834    0.429939    0.522987     0.007504
PT2524   PT        0.628102    0.394669    0.523970     0.004505
PT2525   PT        0.630624    0.431217    0.558202     0.004505
AU2526   AU        0.660057    0.395908    0.558426     0.007504
PT2527   PT        0.662256    0.428671    0.523101     0.004505
PT2528   PT        0.694071    0.394573    0.525212     0.004505
PT2529   PT        0.693298    0.430239    0.558897     0.004505
PT2530   PT        0.728626    0.391665    0.561005     0.004505
AU2531   AU        0.728117    0.428808    0.523406     0.007504
AU2532   AU        0.763188    0.392301    0.526249     0.007504
AU2533   AU        0.764958    0.428728    0.558288     0.007504
PT2534   PT        0.799364    0.391015    0.561680     0.004505
AU2535   AU        0.799009    0.426245    0.522613     0.007504
AU2536   AU        0.037144    0.462543    0.524498     0.007504
AU2537   AU        0.070021    0.464332    0.560077     0.007504
AU2538   AU        0.069571    0.498459    0.524170     0.007504
AU2539   AU        0.102983    0.466211    0.525706     0.007504
AU2540   AU        0.104973    0.499131    0.560330     0.007504
AU2541   AU        0.138044    0.464520    0.559333     0.007504
AU2542   AU        0.138614    0.500390    0.525479     0.007504
AU2543   AU        0.171401    0.464598    0.524650     0.007504
AU2544   AU        0.171422    0.500312    0.558118     0.007504
PT2545   PT        0.204806    0.464539    0.558374     0.004505
AU2546   AU        0.204896    0.500586    0.524020     0.007504
PT2547   PT        0.237441    0.464469    0.522677     0.004505
PT2548   PT        0.235114    0.499217    0.559269     0.004505
AU2549   AU        0.270134    0.464215    0.557681     0.007504
PT2550   PT        0.269810    0.500787    0.524335     0.004505
PT2551   PT        0.301114    0.465681    0.523501     0.004505
AU2552   AU        0.302348    0.499226    0.558625     0.007504
AU2553   AU        0.334459    0.463656    0.558270     0.007504
AU2554   AU        0.333591    0.500893    0.522549     0.007504
AU2555   AU        0.365827    0.465157    0.523792     0.007504
PT2556   PT        0.366235    0.500335    0.559036     0.004505
PT2557   PT        0.398330    0.465606    0.558995     0.004505
PT2558   PT        0.399070    0.499309    0.523755     0.004505
PT2559   PT        0.432791    0.465411    0.524932     0.004505
PT2560   PT        0.430659    0.501819    0.558781     0.004505
PT2561   PT        0.463944    0.465755    0.559535     0.004505
AU2562   AU        0.463117    0.499977    0.524866     0.007504
PT2563   PT        0.497375    0.465319    0.523850     0.004505
PT2564   PT        0.497611    0.500910    0.557364     0.004505
AU2565   AU        0.531579    0.464894    0.558721     0.007504
PT2566   PT        0.531691    0.498157    0.522619     0.004505
PT2567   PT        0.564154    0.463330    0.523380     0.004505
PT2568   PT        0.562557    0.500706    0.558677     0.004505
PT2569   PT        0.596887    0.466151    0.558066     0.004505
AU2570   AU        0.595535    0.500379    0.524284     0.007504
PT2571   PT        0.630450    0.465002    0.522944     0.004505
PT2572   PT        0.629587    0.498901    0.558867     0.004505
PT2573   PT        0.662816    0.465845    0.559706     0.004505
PT2574   PT        0.659939    0.500288    0.523652     0.004505
PT2575   PT        0.693544    0.464742    0.524450     0.004505
AU2576   AU        0.696210    0.500390    0.560471     0.007504
PT2577   PT        0.728204    0.464178    0.558300     0.004505
AU2578   AU        0.726561    0.497997    0.522104     0.007504
AU2579   AU        0.760635    0.465801    0.524694     0.007504
AU2580   AU        0.762631    0.500280    0.561190     0.007504
PT2581   PT        0.799294    0.463005    0.557788     0.004505
AU2582   AU        0.795493    0.497517    0.522542     0.007504
AU2583   AU        0.866501    0.503944    0.523414     0.007504
AU2584   AU        0.070261    0.534498    0.558470     0.007504
AU2585   AU        0.067659    0.571780    0.524966     0.007504
AU2586   AU        0.104056    0.534982    0.523734     0.007504
PT2587   PT        0.102282    0.568831    0.558825     0.004505
AU2588   AU        0.136845    0.536418    0.559250     0.007504
PT2589   PT        0.138696    0.569152    0.522715     0.004505
PT2590   PT        0.171594    0.534907    0.523669     0.004505
AU2591   AU        0.171776    0.571740    0.559796     0.007504
AU2592   AU        0.204584    0.535722    0.558152     0.007504
PT2593   PT        0.202916    0.571796    0.523116     0.004505
PT2594   PT        0.235376    0.536484    0.523300     0.004505
AU2595   AU        0.235670    0.570236    0.559008     0.007504
PT2596   PT        0.268556    0.535901    0.558352     0.004505
PT2597   PT        0.270443    0.570938    0.523183     0.004505
PT2598   PT        0.301762    0.537117    0.524517     0.004505
PT2599   PT        0.302514    0.570467    0.559299     0.004505
PT2600   PT        0.334130    0.534854    0.558270     0.004505
AU2601   AU        0.333818    0.569350    0.523234     0.007504
AU2602   AU        0.367212    0.536082    0.523918     0.007504
PT2603   PT        0.366611    0.569984    0.560049     0.004505
AU2604   AU        0.398979    0.536445    0.559216     0.007504
PT2605   PT        0.400596    0.570826    0.524524     0.004505
PT2606   PT        0.431693    0.535718    0.523026     0.004505
AU2607   AU        0.432695    0.571150    0.560191     0.007504
PT2608   PT        0.465961    0.535317    0.558719     0.004505
AU2609   AU        0.464667    0.569786    0.524589     0.007504
PT2610   PT        0.498941    0.535431    0.523764     0.004505
PT2611   PT        0.497250    0.569377    0.558648     0.004505
PT2612   PT        0.529630    0.535279    0.556990     0.004505
PT2613   PT        0.528985    0.571727    0.524618     0.004505
PT2614   PT        0.563092    0.534596    0.523092     0.004505
AU2615   AU        0.563261    0.570127    0.557407     0.007504
PT2616   PT        0.596160    0.534440    0.558056     0.004505
PT2617   PT        0.595380    0.570317    0.521011     0.004505
PT2618   PT        0.627514    0.534823    0.525272     0.004505
PT2619   PT        0.626500    0.570008    0.557469     0.004505
PT2620   PT        0.659755    0.534723    0.558293     0.004505
PT2621   PT        0.661299    0.570189    0.523205     0.004505
PT2622   PT        0.692389    0.534649    0.523208     0.004505
PT2623   PT        0.691880    0.569824    0.557972     0.004505
PT2624   PT        0.726080    0.535238    0.558778     0.004505
AU2625   AU        0.726598    0.570575    0.524908     0.007504
PT2626   PT        0.760137    0.534770    0.524039     0.004505
PT2627   PT        0.760850    0.568840    0.558371     0.004505
AU2628   AU        0.795087    0.535010    0.561007     0.007504
PT2629   PT        0.795558    0.569444    0.524244     0.004505
AU2630   AU        0.070685    0.605572    0.560474     0.007504
AU2631   AU        0.070268    0.641383    0.525772     0.007504
PT2632   PT        0.106303    0.605084    0.525106     0.004505
PT2633   PT        0.104371    0.640023    0.559708     0.004505
AU2634   AU        0.137894    0.604484    0.559282     0.007504
AU2635   AU        0.135494    0.640552    0.524788     0.007504
PT2636   PT        0.169884    0.603288    0.524812     0.004505
PT2637   PT        0.171407    0.638981    0.559870     0.004505
AU2638   AU        0.203835    0.606032    0.559790     0.007504
AU2639   AU        0.202882    0.638395    0.523191     0.007504
AU2640   AU        0.236748    0.603478    0.521903     0.007504
AU2641   AU        0.236101    0.639975    0.557035     0.007504
AU2642   AU        0.269010    0.603807    0.558114     0.007504
PT2643   PT        0.268618    0.639754    0.523474     0.004505
AU2644   AU        0.300838    0.604982    0.523955     0.007504
PT2645   PT        0.300007    0.639154    0.558953     0.004505
PT2646   PT        0.333899    0.605269    0.556803     0.004505
PT2647   PT        0.334806    0.640275    0.524028     0.004505
PT2648   PT        0.367467    0.605597    0.522433     0.004505
AU2649   AU        0.366525    0.641332    0.558129     0.007504
PT2650   PT        0.399300    0.605480    0.559030     0.004505
PT2651   PT        0.400214    0.639362    0.523614     0.004505
AU2652   AU        0.432381    0.605332    0.523997     0.007504
PT2653   PT        0.432342    0.640486    0.558203     0.004505
PT2654   PT        0.465720    0.605359    0.557781     0.004505
AU2655   AU        0.464864    0.641237    0.522674     0.007504
PT2656   PT        0.497091    0.606828    0.523361     0.004505
PT2657   PT        0.497343    0.639636    0.559015     0.004505
PT2658   PT        0.530103    0.605026    0.558874     0.004505
PT2659   PT        0.531570    0.640032    0.525283     0.004505
PT2660   PT        0.561776    0.605186    0.523767     0.004505
PT2661   PT        0.562984    0.639221    0.557359     0.004505
AU2662   AU        0.595145    0.604473    0.558721     0.007504
PT2663   PT        0.595671    0.640450    0.522964     0.004505
PT2664   PT        0.629445    0.606821    0.522710     0.004505
PT2665   PT        0.627463    0.640097    0.559323     0.004505
PT2666   PT        0.660463    0.607239    0.559064     0.004505
PT2667   PT        0.661967    0.641951    0.522890     0.004505
AU2668   AU        0.693331    0.604409    0.523552     0.007504
AU2669   AU        0.692775    0.642717    0.558950     0.007504
PT2670   PT        0.724784    0.605947    0.557204     0.004505
PT2671   PT        0.725184    0.642341    0.523033     0.004505
AU2672   AU        0.758323    0.605811    0.523222     0.007504
PT2673   PT        0.757490    0.639347    0.558160     0.004505
AU2674   AU        0.868112    0.562539    0.599080     0.007504
AU2675   AU        0.793456    0.642603    0.524277     0.007504
AU2676   AU        0.104116    0.674444    0.523951     0.007504
PT2677   PT        0.138931    0.674397    0.558976     0.004505
PT2678   PT        0.134365    0.711633    0.526791     0.004505
AU2679   AU        0.169640    0.675414    0.525241     0.007504
PT2680   PT        0.170079    0.709515    0.560421     0.004505
AU2681   AU        0.203398    0.673952    0.557988     0.007504
AU2682   AU        0.202637    0.711972    0.522787     0.007504
PT2683   PT        0.235603    0.673365    0.523910     0.004505
PT2684   PT        0.235585    0.708761    0.557803     0.004505
AU2685   AU        0.268067    0.675566    0.558967     0.007504
AU2686   AU        0.268111    0.709216    0.522345     0.007504
AU2687   AU        0.302272    0.674832    0.524173     0.007504
PT2688   PT        0.300403    0.710844    0.556385     0.004505
AU2689   AU        0.333056    0.675189    0.559284     0.007504
PT2690   PT        0.333160    0.710712    0.524597     0.004505
PT2691   PT        0.366033    0.675700    0.524213     0.004505
PT2692   PT        0.367459    0.709622    0.559489     0.004505
PT2693   PT        0.400566    0.675356    0.558887     0.004505
PT2694   PT        0.400049    0.709272    0.522488     0.004505
PT2695   PT        0.432655    0.675823    0.523459     0.004505
PT2696   PT        0.432928    0.711644    0.558624     0.004505
PT2697   PT        0.463815    0.676055    0.557839     0.004505
AU2698   AU        0.465235    0.710543    0.524995     0.007504
PT2699   PT        0.496698    0.674627    0.524495     0.004505
PT2700   PT        0.496789    0.709955    0.556955     0.004505
PT2701   PT        0.531730    0.674962    0.558605     0.004505
PT2702   PT        0.530999    0.710524    0.522956     0.004505
PT2703   PT        0.563136    0.677103    0.524370     0.004505
AU2704   AU        0.564006    0.710941    0.559186     0.007504
PT2705   PT        0.594111    0.675499    0.558507     0.004505
AU2706   AU        0.595448    0.710594    0.522109     0.007504
PT2707   PT        0.626450    0.674674    0.524144     0.004505
PT2708   PT        0.628029    0.711843    0.558834     0.004505
PT2709   PT        0.658936    0.675391    0.557740     0.004505
AU2710   AU        0.660215    0.710464    0.523531     0.007504
PT2711   PT        0.694131    0.675862    0.524553     0.004505
AU2712   AU        0.694335    0.712230    0.557001     0.007504
AU2713   AU        0.725696    0.674446    0.558725     0.007504
PT2714   PT        0.727547    0.708971    0.523738     0.004505
PT2715   PT        0.758814    0.674596    0.524544     0.004505
PT2716   PT        0.170297    0.745802    0.523197     0.004505
PT2717   PT        0.203493    0.746212    0.556554     0.004505
PT2718   PT        0.202413    0.783912    0.526472     0.004505
AU2719   AU        0.237001    0.748214    0.524030     0.007504
PT2720   PT        0.237230    0.782844    0.558704     0.004505
PT2721   PT        0.269651    0.746375    0.559274     0.004505
AU2722   AU        0.268562    0.782169    0.523308     0.007504
PT2723   PT        0.300010    0.745234    0.522887     0.004505
PT2724   PT        0.301894    0.782405    0.558115     0.004505
AU2725   AU        0.333619    0.744173    0.558505     0.007504
PT2726   PT        0.333984    0.779481    0.522835     0.004505
PT2727   PT        0.367318    0.744313    0.523190     0.004505
PT2728   PT        0.367181    0.779093    0.559414     0.004505
PT2729   PT        0.399289    0.745750    0.559078     0.004505
AU2730   AU        0.400369    0.781889    0.524082     0.007504
AU2731   AU        0.432452    0.745204    0.521814     0.007504
PT2732   PT        0.431135    0.780706    0.559355     0.004505
PT2733   PT        0.463675    0.745109    0.558719     0.004505
AU2734   AU        0.465384    0.779525    0.524629     0.007504
AU2735   AU        0.498595    0.745361    0.522488     0.007504
AU2736   AU        0.498067    0.780588    0.560078     0.007504
PT2737   PT        0.530876    0.745573    0.557116     0.004505
AU2738   AU        0.529815    0.780153    0.522765     0.007504
PT2739   PT        0.564035    0.745763    0.522687     0.004505
AU2740   AU        0.563438    0.782146    0.556547     0.007504
AU2741   AU        0.596737    0.746153    0.556778     0.007504
AU2742   AU        0.596566    0.781428    0.521714     0.007504
AU2743   AU        0.628827    0.746953    0.521622     0.007504
PT2744   PT        0.629143    0.782994    0.556571     0.004505
PT2745   PT        0.663373    0.747952    0.557966     0.004505
AU2746   AU        0.663950    0.785244    0.521796     0.007504
AU2747   AU        0.696451    0.746804    0.522231     0.007504
PT2748   PT        0.236378    0.819990    0.523384     0.004505
AU2749   AU        0.268311    0.816390    0.561069     0.007504
AU2750   AU        0.265253    0.858638    0.521382     0.007504
AU2751   AU        0.301860    0.818470    0.523351     0.007504
PT2752   PT        0.301021    0.851446    0.557841     0.004505
AU2753   AU        0.334090    0.817600    0.558388     0.007504
AU2754   AU        0.337179    0.852656    0.523713     0.007504
AU2755   AU        0.366725    0.816389    0.523899     0.007504
PT2756   PT        0.367519    0.851844    0.559732     0.004505
AU2757   AU        0.399673    0.817132    0.559393     0.007504
AU2758   AU        0.401486    0.854031    0.527614     0.007504
PT2759   PT        0.432915    0.814551    0.524697     0.004505
AU2760   AU        0.434798    0.852420    0.557651     0.007504
PT2761   PT        0.465109    0.816934    0.559513     0.004505
AU2762   AU        0.466689    0.855787    0.523828     0.007504
AU2763   AU        0.497008    0.815602    0.521553     0.007504
PT2764   PT        0.497312    0.850535    0.558771     0.004505
AU2765   AU        0.532490    0.815211    0.558169     0.007504
PT2766   PT        0.530921    0.850040    0.523807     0.004505
AU2767   AU        0.565918    0.820711    0.524081     0.007504
AU2768   AU        0.562821    0.853935    0.560850     0.007504
AU2769   AU        0.599437    0.817303    0.557098     0.007504
AU2770   AU        0.602289    0.854949    0.524421     0.007504
AU2771   AU        0.631349    0.817762    0.521486     0.007504
PT2772   PT        0.432046    0.889610    0.527200     0.004505
AU2773   AU        0.336157    0.074231    0.594128     0.007504
PT2774   PT        0.369240    0.071633    0.627850     0.004505
PT2775   PT        0.402734    0.073720    0.595664     0.004505
AU2776   AU        0.432008    0.072170    0.631199     0.007504
AU2777   AU        0.465301    0.072764    0.596799     0.007504
PT2778   PT        0.501218    0.073554    0.627850     0.004505
PT2779   PT        0.534421    0.076897    0.596123     0.004505
PT2780   PT        0.201918    0.145155    0.596621     0.004505
AU2781   AU        0.235895    0.145711    0.628154     0.007504
PT2782   PT        0.269737    0.111179    0.629389     0.004505
PT2783   PT        0.271554    0.148940    0.593537     0.004505
AU2784   AU        0.303935    0.112011    0.596874     0.007504
AU2785   AU        0.303008    0.146116    0.633881     0.007504
AU2786   AU        0.337517    0.109555    0.629695     0.007504
AU2787   AU        0.337871    0.147190    0.593250     0.007504
PT2788   PT        0.366702    0.108846    0.592013     0.004505
AU2789   AU        0.369354    0.145550    0.629755     0.007504
AU2790   AU        0.403233    0.106937    0.628725     0.007504
AU2791   AU        0.401865    0.144030    0.593617     0.007504
AU2792   AU        0.434886    0.108294    0.593776     0.007504
AU2793   AU        0.434556    0.144419    0.630865     0.007504
PT2794   PT        0.467069    0.110102    0.631042     0.004505
AU2795   AU        0.467415    0.143560    0.595268     0.007504
PT2796   PT        0.499973    0.109919    0.594993     0.004505
AU2797   AU        0.499086    0.146393    0.629505     0.007504
PT2798   PT        0.534253    0.111586    0.631172     0.004505
AU2799   AU        0.533409    0.144512    0.595068     0.007504
PT2800   PT        0.568635    0.109100    0.596422     0.004505
PT2801   PT        0.565987    0.145723    0.629989     0.004505
AU2802   AU        0.595982    0.111255    0.636425     0.007504
PT2803   PT        0.599652    0.146017    0.596021     0.004505
AU2804   AU        0.631360    0.141743    0.629720     0.007504
PT2805   PT        0.666682    0.143229    0.596087     0.004505
AU2806   AU        0.136780    0.214840    0.595518     0.007504
PT2807   PT        0.168629    0.178748    0.596079     0.004505
AU2808   AU        0.168970    0.215511    0.631086     0.007504
PT2809   PT        0.166036    0.146782    0.633930     0.004505
AU2810   AU        0.202949    0.214910    0.595315     0.007504
AU2811   AU        0.237294    0.181661    0.595541     0.007504
PT2812   PT        0.237434    0.217126    0.629865     0.004505
PT2813   PT        0.269913    0.182782    0.631232     0.004505
PT2814   PT        0.270349    0.215943    0.595132     0.004505
PT2815   PT        0.304127    0.183691    0.596359     0.004505
AU2816   AU        0.302405    0.215193    0.631577     0.007504
AU2817   AU        0.338592    0.181026    0.630101     0.007504
AU2818   AU        0.336231    0.218467    0.594776     0.007504
PT2819   PT        0.368661    0.184351    0.592966     0.004505
AU2820   AU        0.367508    0.219567    0.631398     0.007504
PT2821   PT        0.401232    0.180113    0.631170     0.004505
PT2822   PT        0.400649    0.219211    0.596115     0.004505
PT2823   PT        0.431821    0.182057    0.595725     0.004505
AU2824   AU        0.434055    0.218163    0.631670     0.007504
AU2825   AU        0.466350    0.185135    0.629347     0.007504
PT2826   PT        0.466077    0.222426    0.593736     0.004505
AU2827   AU        0.499264    0.180788    0.594426     0.007504
PT2828   PT        0.497995    0.219444    0.631096     0.004505
PT2829   PT        0.532571    0.179809    0.632352     0.004505
AU2830   AU        0.530538    0.216433    0.597869     0.007504
PT2831   PT        0.564518    0.181135    0.596741     0.004505
PT2832   PT        0.565627    0.218045    0.629177     0.004505
PT2833   PT        0.599938    0.180266    0.629586     0.004505
AU2834   AU        0.599197    0.218854    0.596371     0.007504
AU2835   AU        0.635153    0.178869    0.595360     0.007504
AU2836   AU        0.633728    0.214740    0.627405     0.007504
PT2837   PT        0.667217    0.181027    0.631014     0.004505
AU2838   AU        0.666419    0.215913    0.592077     0.007504
AU2839   AU        0.700405    0.181161    0.597226     0.007504
AU2840   AU        0.699369    0.215857    0.630955     0.007504
AU2841   AU        0.730902    0.215799    0.594247     0.007504
AU2842   AU        0.100954    0.284768    0.627973     0.007504
PT2843   PT        0.138354    0.253263    0.628787     0.004505
PT2844   PT        0.136474    0.286801    0.592151     0.004505
AU2845   AU        0.169945    0.250080    0.595401     0.007504
AU2846   AU        0.169126    0.288331    0.627741     0.007504
AU2847   AU        0.201355    0.251333    0.628839     0.007504
AU2848   AU        0.204499    0.290509    0.594592     0.007504
AU2849   AU        0.236549    0.254352    0.594589     0.007504
PT2850   PT        0.236861    0.289319    0.629566     0.004505
AU2851   AU        0.271384    0.251809    0.627873     0.007504
PT2852   PT        0.269635    0.290296    0.593834     0.004505
AU2853   AU        0.303935    0.252053    0.596556     0.007504
PT2854   PT        0.302239    0.286491    0.630948     0.004505
AU2855   AU        0.336033    0.255394    0.630025     0.007504
AU2856   AU        0.335604    0.286886    0.594539     0.007504
PT2857   PT        0.370285    0.253100    0.594179     0.004505
PT2858   PT        0.367737    0.290060    0.628931     0.004505
PT2859   PT        0.399926    0.253845    0.632401     0.004505
PT2860   PT        0.399361    0.289972    0.594446     0.004505
PT2861   PT        0.432453    0.255136    0.594339     0.004505
PT2862   PT        0.435066    0.291347    0.630002     0.004505
AU2863   AU        0.466208    0.255339    0.630289     0.007504
PT2864   PT        0.466034    0.292067    0.593293     0.004505
PT2865   PT        0.498165    0.255090    0.595365     0.004505
PT2866   PT        0.498209    0.291187    0.628750     0.004505
PT2867   PT        0.529852    0.256325    0.628743     0.004505
AU2868   AU        0.530644    0.290589    0.594480     0.007504
PT2869   PT        0.562304    0.254638    0.594655     0.004505
PT2870   PT        0.563173    0.290698    0.628927     0.004505
PT2871   PT        0.598561    0.256106    0.632262     0.004505
PT2872   PT        0.597677    0.289744    0.595947     0.004505
PT2873   PT        0.628804    0.255559    0.595026     0.004505
PT2874   PT        0.631153    0.291856    0.630165     0.004505
AU2875   AU        0.665310    0.253310    0.628725     0.007504
AU2876   AU        0.663132    0.290871    0.594608     0.007504
PT2877   PT        0.700249    0.251081    0.594803     0.004505
AU2878   AU        0.698639    0.288029    0.629378     0.007504
AU2879   AU        0.730612    0.250415    0.630008     0.007504
PT2880   PT        0.731285    0.286900    0.596330     0.004505
AU2881   AU        0.765287    0.284399    0.629360     0.007504
PT2882   PT        0.066374    0.356993    0.595906     0.004505
AU2883   AU        0.104013    0.321510    0.592387     0.007504
AU2884   AU        0.104964    0.358467    0.633311     0.007504
AU2885   AU        0.134807    0.322513    0.630091     0.007504
AU2886   AU        0.136287    0.358415    0.594194     0.007504
PT2887   PT        0.169465    0.327087    0.595887     0.004505
PT2888   PT        0.171673    0.359549    0.629232     0.004505
PT2889   PT        0.202214    0.322077    0.630290     0.004505
PT2890   PT        0.203599    0.359032    0.594613     0.004505
PT2891   PT        0.236844    0.324934    0.595627     0.004505
AU2892   AU        0.236049    0.360692    0.628941     0.007504
PT2893   PT        0.268908    0.325920    0.628908     0.004505
PT2894   PT        0.269622    0.360142    0.594217     0.004505
AU2895   AU        0.301103    0.322261    0.595917     0.007504
PT2896   PT        0.302885    0.359718    0.628050     0.004505
AU2897   AU        0.333730    0.322214    0.629721     0.007504
AU2898   AU        0.334805    0.359875    0.593468     0.007504
AU2899   AU        0.367262    0.323880    0.593057     0.007504
PT2900   PT        0.364980    0.358384    0.628471     0.004505
AU2901   AU        0.399387    0.324353    0.628582     0.007504
PT2902   PT        0.399874    0.359567    0.595310     0.004505
PT2903   PT        0.433936    0.324481    0.595174     0.004505
PT2904   PT        0.432846    0.359818    0.627906     0.004505
PT2905   PT        0.467227    0.326194    0.629447     0.004505
PT2906   PT        0.466471    0.360331    0.595308     0.004505
AU2907   AU        0.498871    0.325979    0.595082     0.007504
PT2908   PT        0.497842    0.362162    0.629258     0.004505
PT2909   PT        0.529575    0.326697    0.630466     0.004505
AU2910   AU        0.530580    0.360046    0.593182     0.007504
PT2911   PT        0.564551    0.326095    0.594439     0.004505
PT2912   PT        0.563487    0.359254    0.630416     0.004505
AU2913   AU        0.596918    0.323289    0.630579     0.007504
PT2914   PT        0.595525    0.360989    0.595026     0.004505
PT2915   PT        0.629229    0.324649    0.595019     0.004505
AU2916   AU        0.628324    0.359601    0.628904     0.007504
AU2917   AU        0.663947    0.326326    0.631266     0.007504
AU2918   AU        0.662333    0.361159    0.593139     0.007504
PT2919   PT        0.694866    0.325790    0.595505     0.004505
AU2920   AU        0.694271    0.361775    0.630471     0.007504
AU2921   AU        0.731216    0.324092    0.631015     0.007504
PT2922   PT        0.730613    0.358325    0.598242     0.004505
AU2923   AU        0.763786    0.324102    0.596083     0.007504
AU2924   AU        0.764534    0.359440    0.631506     0.007504
PT2925   PT        0.797390    0.356395    0.597952     0.004505
AU2926   AU        0.067038    0.389326    0.633420     0.007504
AU2927   AU        0.068633    0.428526    0.594950     0.007504
AU2928   AU        0.100428    0.393442    0.597761     0.007504
PT2929   PT        0.103107    0.426085    0.632974     0.004505
PT2930   PT        0.139132    0.392077    0.632356     0.004505
AU2931   AU        0.137545    0.429716    0.595149     0.007504
AU2932   AU        0.171488    0.395312    0.592488     0.007504
AU2933   AU        0.170273    0.428276    0.629652     0.007504
PT2934   PT        0.203836    0.396325    0.628100     0.004505
PT2935   PT        0.204028    0.432205    0.593388     0.004505
AU2936   AU        0.235278    0.395896    0.594276     0.007504
PT2937   PT        0.234873    0.430039    0.630918     0.004505
PT2938   PT        0.269281    0.394414    0.628572     0.004505
AU2939   AU        0.269300    0.430499    0.594697     0.007504
PT2940   PT        0.301667    0.396082    0.592244     0.004505
AU2941   AU        0.303005    0.430549    0.627316     0.007504
AU2942   AU        0.335734    0.395727    0.628727     0.007504
AU2943   AU        0.334895    0.430834    0.593568     0.007504
PT2944   PT        0.367328    0.394387    0.593293     0.004505
PT2945   PT        0.366634    0.431772    0.628486     0.004505
PT2946   PT        0.399812    0.395010    0.628387     0.004505
AU2947   AU        0.399940    0.432642    0.594003     0.007504
PT2948   PT        0.432279    0.394934    0.595133     0.004505
PT2949   PT        0.431707    0.431899    0.628845     0.004505
PT2950   PT        0.465415    0.396957    0.629780     0.004505
PT2951   PT        0.464769    0.430581    0.593010     0.004505
PT2952   PT        0.499026    0.394703    0.593896     0.004505
PT2953   PT        0.497271    0.430613    0.627371     0.004505
PT2954   PT        0.530565    0.396175    0.629604     0.004505
PT2955   PT        0.529969    0.430708    0.593619     0.004505
PT2956   PT        0.564160    0.396062    0.593772     0.004505
AU2957   AU        0.564074    0.430235    0.627724     0.007504
AU2958   AU        0.596061    0.396336    0.629092     0.007504
PT2959   PT        0.594981    0.431810    0.595078     0.004505
PT2960   PT        0.627935    0.396503    0.593533     0.004505
PT2961   PT        0.628342    0.430292    0.627889     0.004505
AU2962   AU        0.660471    0.395684    0.628522     0.007504
PT2963   PT        0.659997    0.430483    0.594706     0.004505
AU2964   AU        0.694468    0.397505    0.593075     0.007504
AU2965   AU        0.694630    0.431088    0.629346     0.007504
PT2966   PT        0.728245    0.395030    0.629451     0.004505
AU2967   AU        0.730039    0.427355    0.592638     0.007504
PT2968   PT        0.766651    0.393641    0.594965     0.004505
AU2969   AU        0.764299    0.428609    0.631714     0.007504
PT2970   PT        0.799041    0.394816    0.629453     0.004505
AU2971   AU        0.800059    0.429440    0.595654     0.007504
PT2972   PT        0.067477    0.465372    0.629884     0.004505
AU2973   AU        0.071024    0.500606    0.593250     0.007504
PT2974   PT        0.104441    0.463841    0.597042     0.004505
AU2975   AU        0.101976    0.499553    0.631275     0.007504
PT2976   PT        0.136834    0.465792    0.630142     0.004505
PT2977   PT        0.139522    0.501927    0.593966     0.004505
PT2978   PT        0.169752    0.464503    0.595457     0.004505
AU2979   AU        0.171399    0.499762    0.630289     0.007504
PT2980   PT        0.203991    0.464991    0.629943     0.004505
PT2981   PT        0.203910    0.499923    0.593885     0.004505
AU2982   AU        0.237079    0.466332    0.592732     0.007504
PT2983   PT        0.235860    0.501404    0.628717     0.004505
PT2984   PT        0.268359    0.466188    0.627638     0.004505
PT2985   PT        0.270155    0.500013    0.592547     0.004505
PT2986   PT        0.301405    0.464290    0.595241     0.004505
PT2987   PT        0.301331    0.502013    0.629579     0.004505
AU2988   AU        0.333696    0.466177    0.629489     0.007504
AU2989   AU        0.333800    0.500656    0.596480     0.007504
PT2990   PT        0.365759    0.466264    0.594124     0.004505
AU2991   AU        0.366904    0.500334    0.629988     0.007504
AU2992   AU        0.399580    0.465961    0.629275     0.007504
PT2993   PT        0.400432    0.500132    0.594194     0.004505
AU2994   AU        0.431843    0.465687    0.594307     0.007504
PT2995   PT        0.431988    0.500453    0.629103     0.004505
AU2996   AU        0.465971    0.465605    0.627333     0.007504
PT2997   PT        0.464595    0.501183    0.593502     0.004505
AU2998   AU        0.498393    0.466581    0.592666     0.007504
PT2999   PT        0.496207    0.500960    0.629025     0.004505
PT3000   PT        0.529975    0.466208    0.630775     0.004505
AU3001   AU        0.528870    0.499660    0.593761     0.007504
PT3002   PT        0.563210    0.464999    0.593924     0.004505
PT3003   PT        0.563217    0.499160    0.627583     0.004505
PT3004   PT        0.595740    0.465601    0.628018     0.004505
PT3005   PT        0.596231    0.501389    0.594809     0.004505
PT3006   PT        0.628584    0.465292    0.592989     0.004505
PT3007   PT        0.627847    0.499340    0.629006     0.004505
PT3008   PT        0.662482    0.464983    0.628144     0.004505
PT3009   PT        0.659901    0.500197    0.593164     0.004505
PT3010   PT        0.696835    0.464162    0.594530     0.004505
PT3011   PT        0.692308    0.499713    0.627005     0.004505
PT3012   PT        0.727587    0.464943    0.627851     0.004505
AU3013   AU        0.725640    0.499876    0.594950     0.007504
AU3014   AU        0.764585    0.463954    0.593837     0.007504
AU3015   AU        0.765711    0.499469    0.628858     0.007504
AU3016   AU        0.796439    0.463761    0.631310     0.007504
AU3017   AU        0.799792    0.496338    0.595112     0.007504
PT3018   PT        0.067831    0.530182    0.633392     0.004505
AU3019   AU        0.070912    0.568526    0.596417     0.007504
AU3020   AU        0.102848    0.533723    0.593115     0.007504
AU3021   AU        0.105819    0.568735    0.630646     0.007504
AU3022   AU        0.136351    0.533018    0.631111     0.007504
PT3023   PT        0.138090    0.569785    0.593714     0.004505
AU3024   AU        0.172597    0.534209    0.594353     0.007504
AU3025   AU        0.170719    0.568680    0.627659     0.007504
AU3026   AU        0.203422    0.534680    0.630639     0.007504
AU3027   AU        0.204294    0.570268    0.594173     0.007504
PT3028   PT        0.235802    0.533679    0.592760     0.004505
AU3029   AU        0.236453    0.569344    0.627913     0.007504
PT3030   PT        0.267823    0.534838    0.629534     0.004505
PT3031   PT        0.269276    0.569558    0.595525     0.004505
PT3032   PT        0.302535    0.535208    0.593634     0.004505
AU3033   AU        0.302266    0.571232    0.628919     0.007504
PT3034   PT        0.335011    0.536074    0.628889     0.004505
AU3035   AU        0.334403    0.569894    0.593704     0.007504
PT3036   PT        0.366915    0.535386    0.594119     0.004505
PT3037   PT        0.367127    0.570945    0.628148     0.004505
PT3038   PT        0.399435    0.537067    0.628395     0.004505
AU3039   AU        0.399628    0.571579    0.594194     0.007504
PT3040   PT        0.431609    0.536003    0.593592     0.004505
PT3041   PT        0.431608    0.571312    0.629025     0.004505
PT3042   PT        0.464347    0.536075    0.629619     0.004505
PT3043   PT        0.464379    0.571008    0.593434     0.004505
PT3044   PT        0.495250    0.536833    0.593824     0.004505
PT3045   PT        0.498797    0.570013    0.627892     0.004505
PT3046   PT        0.529610    0.534929    0.628200     0.004505
PT3047   PT        0.529767    0.570193    0.593061     0.004505
PT3048   PT        0.562933    0.535591    0.592924     0.004505
PT3049   PT        0.563498    0.569517    0.628589     0.004505
PT3050   PT        0.596044    0.535006    0.629286     0.004505
PT3051   PT        0.595026    0.570802    0.593727     0.004505
PT3052   PT        0.627515    0.534965    0.594931     0.004505
AU3053   AU        0.627669    0.571572    0.628324     0.007504
AU3054   AU        0.660168    0.535098    0.627335     0.007504
PT3055   PT        0.660558    0.568957    0.593825     0.004505
PT3056   PT        0.693326    0.534854    0.592551     0.004505
AU3057   AU        0.692151    0.570838    0.627423     0.007504
AU3058   AU        0.725678    0.535379    0.628740     0.007504
PT3059   PT        0.726108    0.571119    0.592321     0.004505
AU3060   AU        0.760804    0.535209    0.594991     0.007504
AU3061   AU        0.758167    0.571855    0.628655     0.007504
AU3062   AU        0.797702    0.534327    0.629267     0.007504
PT3063   PT        0.793213    0.570590    0.594474     0.004505
AU3064   AU        0.101643    0.605115    0.593123     0.007504
AU3065   AU        0.101374    0.638012    0.631121     0.007504
PT3066   PT        0.137549    0.603786    0.632009     0.004505
AU3067   AU        0.136246    0.641373    0.595720     0.007504
PT3068   PT        0.170534    0.605614    0.595491     0.004505
PT3069   PT        0.169097    0.638830    0.630092     0.004505
PT3070   PT        0.202681    0.604584    0.628330     0.004505
AU3071   AU        0.203585    0.640436    0.594315     0.007504
PT3072   PT        0.237255    0.606286    0.595424     0.004505
PT3073   PT        0.237402    0.640358    0.628742     0.004505
AU3074   AU        0.269331    0.605971    0.627878     0.007504
PT3075   PT        0.269247    0.640178    0.594381     0.004505
PT3076   PT        0.300711    0.605222    0.593386     0.004505
AU3077   AU        0.301270    0.641189    0.631711     0.007504
PT3078   PT        0.334646    0.605026    0.627246     0.004505
PT3079   PT        0.334710    0.640864    0.593246     0.004505
PT3080   PT        0.367152    0.605749    0.593936     0.004505
AU3081   AU        0.365717    0.641876    0.629078     0.007504
AU3082   AU        0.399404    0.604915    0.629362     0.007504
PT3083   PT        0.400223    0.640675    0.593229     0.004505
PT3084   PT        0.431204    0.605817    0.593992     0.004505
PT3085   PT        0.431601    0.642652    0.626521     0.004505
PT3086   PT        0.464820    0.604497    0.628798     0.004505
PT3087   PT        0.463851    0.640178    0.594008     0.004505
PT3088   PT        0.497536    0.604150    0.592375     0.004505
PT3089   PT        0.496588    0.640910    0.631064     0.004505
PT3090   PT        0.529963    0.605350    0.627079     0.004505
PT3091   PT        0.531090    0.640247    0.593190     0.004505
PT3092   PT        0.562977    0.604691    0.592604     0.004505
PT3093   PT        0.563333    0.642183    0.630680     0.004505
PT3094   PT        0.595357    0.605172    0.629119     0.004505
AU3095   AU        0.595506    0.639658    0.593422     0.007504
PT3096   PT        0.626821    0.604637    0.593359     0.004505
PT3097   PT        0.628751    0.640456    0.628577     0.004505
PT3098   PT        0.659565    0.605359    0.628185     0.004505
PT3099   PT        0.659598    0.640366    0.593586     0.004505
PT3100   PT        0.692996    0.604919    0.593708     0.004505
PT3101   PT        0.691350    0.640584    0.628093     0.004505
AU3102   AU        0.724552    0.604254    0.628416     0.007504
PT3103   PT        0.725249    0.639518    0.592503     0.004505
PT3104   PT        0.759077    0.604454    0.590717     0.004505
AU3105   AU        0.759430    0.640161    0.629725     0.007504
AU3106   AU        0.133569    0.675734    0.633546     0.007504
PT3107   PT        0.133466    0.711898    0.593705     0.004505
AU3108   AU        0.170547    0.675671    0.594849     0.007504
AU3109   AU        0.170363    0.709903    0.630019     0.007504
AU3110   AU        0.203066    0.674450    0.630706     0.007504
PT3111   PT        0.204413    0.710322    0.597458     0.004505
PT3112   PT        0.237140    0.673860    0.594846     0.004505
PT3113   PT        0.238018    0.711412    0.628945     0.004505
PT3114   PT        0.268809    0.675146    0.628865     0.004505
PT3115   PT        0.269917    0.711327    0.593186     0.004505
PT3116   PT        0.300778    0.675595    0.593417     0.004505
PT3117   PT        0.303605    0.709561    0.629248     0.004505
PT3118   PT        0.335092    0.675609    0.628816     0.004505
PT3119   PT        0.334285    0.710663    0.591290     0.004505
PT3120   PT        0.366801    0.676906    0.593949     0.004505
PT3121   PT        0.366207    0.710606    0.627605     0.004505
AU3122   AU        0.398368    0.674985    0.627705     0.007504
PT3123   PT        0.400209    0.710761    0.594623     0.004505
PT3124   PT        0.432421    0.677093    0.592392     0.004505
AU3125   AU        0.432309    0.709045    0.628210     0.007504
PT3126   PT        0.465239    0.675888    0.629129     0.004505
AU3127   AU        0.465284    0.711534    0.593196     0.007504
PT3128   PT        0.496667    0.674286    0.593537     0.004505
AU3129   AU        0.497103    0.708908    0.631191     0.007504
AU3130   AU        0.529780    0.675093    0.628921     0.007504
PT3131   PT        0.530112    0.709178    0.593756     0.004505
PT3132   PT        0.562087    0.675988    0.593512     0.004505
PT3133   PT        0.563473    0.711435    0.628640     0.004505
PT3134   PT        0.596883    0.678266    0.628112     0.004505
AU3135   AU        0.596813    0.712029    0.593080     0.007504
AU3136   AU        0.628480    0.674090    0.593333     0.007504
AU3137   AU        0.629292    0.713132    0.629938     0.007504
PT3138   PT        0.660599    0.677284    0.627890     0.004505
PT3139   PT        0.660453    0.711514    0.592888     0.004505
AU3140   AU        0.693248    0.676252    0.592898     0.007504
AU3141   AU        0.694431    0.713581    0.627722     0.007504
AU3142   AU        0.724736    0.674955    0.628378     0.007504
AU3143   AU        0.726720    0.709121    0.592726     0.007504
AU3144   AU        0.129210    0.742316    0.631415     0.007504
AU3145   AU        0.204503    0.748987    0.628557     0.007504
PT3146   PT        0.201557    0.785498    0.593795     0.004505
PT3147   PT        0.236959    0.745264    0.593143     0.004505
PT3148   PT        0.237788    0.786144    0.630118     0.004505
AU3149   AU        0.270726    0.744912    0.630951     0.007504
PT3150   PT        0.269544    0.780031    0.596440     0.004505
AU3151   AU        0.301744    0.746704    0.593897     0.007504
PT3152   PT        0.303353    0.780512    0.629085     0.004505
AU3153   AU        0.333684    0.745890    0.628361     0.007504
PT3154   PT        0.334492    0.780599    0.593074     0.004505
PT3155   PT        0.366534    0.744381    0.593244     0.004505
AU3156   AU        0.366844    0.782901    0.628273     0.007504
PT3157   PT        0.399448    0.744324    0.628309     0.004505
PT3158   PT        0.400289    0.780035    0.594023     0.004505
AU3159   AU        0.432273    0.744417    0.594406     0.007504
AU3160   AU        0.432100    0.781163    0.630216     0.007504
AU3161   AU        0.464043    0.744143    0.628847     0.007504
PT3162   PT        0.464429    0.780663    0.594147     0.004505
AU3163   AU        0.497828    0.746265    0.594697     0.007504
AU3164   AU        0.499227    0.781827    0.629048     0.007504
AU3165   AU        0.530273    0.745201    0.630728     0.007504
PT3166   PT        0.530790    0.783125    0.594480     0.004505
AU3167   AU        0.562720    0.745370    0.592786     0.007504
AU3168   AU        0.563772    0.781268    0.628533     0.007504
PT3169   PT        0.597588    0.746356    0.628324     0.004505
AU3170   AU        0.598072    0.783794    0.591836     0.007504
AU3171   AU        0.631181    0.747827    0.591714     0.007504
PT3172   PT        0.630398    0.784142    0.626108     0.004505
AU3173   AU        0.663839    0.749959    0.629314     0.007504
PT3174   PT        0.663138    0.787176    0.590793     0.004505
AU3175   AU        0.698718    0.750410    0.590544     0.007504
AU3176   AU        0.269306    0.822872    0.627063     0.007504
PT3177   PT        0.302388    0.817186    0.596553     0.004505
PT3178   PT        0.335476    0.819725    0.631523     0.004505
AU3179   AU        0.334638    0.853367    0.593349     0.007504
PT3180   PT        0.367225    0.816875    0.595411     0.004505
PT3181   PT        0.368350    0.854201    0.630399     0.004505
PT3182   PT        0.400407    0.818874    0.631311     0.004505
PT3183   PT        0.401141    0.855716    0.597173     0.004505
AU3184   AU        0.430475    0.819168    0.595780     0.007504
AU3185   AU        0.434324    0.854793    0.633539     0.007504
AU3186   AU        0.465423    0.816416    0.630999     0.007504
AU3187   AU        0.465890    0.850706    0.596194     0.007504
AU3188   AU        0.497210    0.816741    0.596013     0.007504
AU3189   AU        0.501391    0.854444    0.629860     0.007504
AU3190   AU        0.534277    0.818011    0.627220     0.007504
AU3191   AU        0.530260    0.849626    0.593068     0.007504
AU3192   AU        0.566139    0.817355    0.593287     0.007504
AU3193   AU        0.596263    0.817631    0.631324     0.007504
PT3194   PT        0.267128    0.144737    0.667188     0.004505
PT3195   PT        0.212659    0.128109    0.744295     0.004505
AU3196   AU        0.336625    0.144116    0.665119     0.007504
AU3197   AU        0.370489    0.109859    0.664581     0.007504
AU3198   AU        0.366068    0.140763    0.704093     0.007504
AU3199   AU        0.402055    0.109067    0.703586     0.007504
AU3200   AU        0.399325    0.144509    0.666347     0.007504
AU3201   AU        0.432991    0.108395    0.665006     0.007504
AU3202   AU        0.434754    0.145941    0.700140     0.007504
AU3203   AU        0.466771    0.108417    0.700408     0.007504
AU3204   AU        0.466767    0.145256    0.663947     0.007504
AU3205   AU        0.499481    0.106130    0.663431     0.007504
AU3206   AU        0.498707    0.142244    0.698197     0.007504
AU3207   AU        0.529173    0.143976    0.665355     0.007504
AU3208   AU        0.563452    0.144338    0.700382     0.007504
AU3209   AU        0.597031    0.143062    0.665287     0.007504
AU3210   AU        0.202903    0.217122    0.662555     0.007504
PT3211   PT        0.236229    0.180906    0.663398     0.004505
AU3212   AU        0.235769    0.218058    0.698360     0.007504
AU3213   AU        0.268411    0.177930    0.701945     0.007504
PT3214   PT        0.269306    0.217429    0.667863     0.004505
PT3215   PT        0.301874    0.181223    0.669006     0.004505
AU3216   AU        0.303614    0.216674    0.702988     0.007504
PT3217   PT        0.337475    0.178127    0.699830     0.004505
AU3218   AU        0.335574    0.214322    0.665206     0.007504
AU3219   AU        0.370938    0.180400    0.667899     0.007504
PT3220   PT        0.368681    0.217021    0.700500     0.004505
PT3221   PT        0.401696    0.180059    0.703961     0.004505
PT3222   PT        0.401805    0.215033    0.664915     0.004505
PT3223   PT        0.434916    0.179758    0.667211     0.004505
AU3224   AU        0.433454    0.214755    0.703847     0.007504
AU3225   AU        0.468914    0.180823    0.702098     0.007504
AU3226   AU        0.465216    0.215737    0.667255     0.007504
AU3227   AU        0.498774    0.182470    0.664184     0.007504
PT3228   PT        0.501053    0.217230    0.698510     0.004505
PT3229   PT        0.534038    0.181852    0.698923     0.004505
AU3230   AU        0.533309    0.218495    0.664209     0.007504
AU3231   AU        0.566682    0.177683    0.664349     0.007504
AU3232   AU        0.566257    0.216748    0.700427     0.007504
PT3233   PT        0.598952    0.181587    0.699300     0.004505
AU3234   AU        0.600491    0.215029    0.663196     0.007504
AU3235   AU        0.630397    0.176519    0.663201     0.007504
AU3236   AU        0.630133    0.218106    0.704868     0.007504
AU3237   AU        0.661188    0.215513    0.665542     0.007504
AU3238   AU        0.132807    0.287971    0.666365     0.007504
AU3239   AU        0.169316    0.254237    0.664560     0.007504
AU3240   AU        0.165892    0.285649    0.701263     0.007504
PT3241   PT        0.202067    0.250607    0.699829     0.004505
AU3242   AU        0.203322    0.285299    0.665979     0.007504
AU3243   AU        0.236197    0.253850    0.662676     0.007504
PT3244   PT        0.237866    0.287531    0.701197     0.004505
AU3245   AU        0.269785    0.254101    0.700198     0.007504
AU3246   AU        0.269300    0.290518    0.665102     0.007504
PT3247   PT        0.302899    0.253555    0.665139     0.004505
PT3248   PT        0.302740    0.290230    0.700434     0.004505
AU3249   AU        0.334293    0.254409    0.700475     0.007504
AU3250   AU        0.335802    0.289702    0.664012     0.007504
PT3251   PT        0.369470    0.253983    0.664491     0.004505
PT3252   PT        0.368291    0.289828    0.699420     0.004505
AU3253   AU        0.401367    0.251246    0.699846     0.007504
AU3254   AU        0.400581    0.291747    0.664479     0.007504
AU3255   AU        0.432329    0.252804    0.664849     0.007504
AU3256   AU        0.432605    0.288260    0.700068     0.007504
AU3257   AU        0.464864    0.254495    0.700701     0.007504
AU3258   AU        0.464909    0.291511    0.665084     0.007504
AU3259   AU        0.496721    0.253267    0.665366     0.007504
PT3260   PT        0.497990    0.291771    0.698470     0.004505
AU3261   AU        0.530876    0.255437    0.700225     0.007504
AU3262   AU        0.531381    0.291012    0.663875     0.007504
PT3263   PT        0.563488    0.255861    0.664001     0.004505
PT3264   PT        0.565429    0.290273    0.700229     0.004505
PT3265   PT        0.597255    0.251822    0.699710     0.004505
AU3266   AU        0.598446    0.291484    0.664921     0.007504
AU3267   AU        0.633585    0.253443    0.665100     0.007504
AU3268   AU        0.629455    0.291090    0.699798     0.007504
AU3269   AU        0.662067    0.255693    0.701503     0.007504
AU3270   AU        0.663491    0.289841    0.663693     0.007504
PT3271   PT        0.695678    0.251043    0.665800     0.004505
PT3272   PT        0.697886    0.287767    0.699392     0.004505
AU3273   AU        0.730897    0.286468    0.664850     0.007504
AU3274   AU        0.105339    0.288880    0.706552     0.007504
AU3275   AU        0.139433    0.358390    0.666847     0.007504
PT3276   PT        0.168706    0.319336    0.664329     0.004505
AU3277   AU        0.170351    0.360468    0.704227     0.007504
AU3278   AU        0.203610    0.324480    0.699659     0.007504
AU3279   AU        0.204408    0.357646    0.664732     0.007504
AU3280   AU        0.235704    0.325687    0.663214     0.007504
PT3281   PT        0.237792    0.359525    0.700470     0.004505
PT3282   PT        0.268929    0.324423    0.702636     0.004505
PT3283   PT        0.270228    0.358360    0.665332     0.004505
AU3284   AU        0.301146    0.324766    0.665209     0.007504
AU3285   AU        0.301408    0.358816    0.701191     0.007504
PT3286   PT        0.334875    0.327029    0.698772     0.004505
PT3287   PT        0.334441    0.360549    0.663566     0.004505
PT3288   PT        0.368036    0.324712    0.662712     0.004505
AU3289   AU        0.365693    0.361295    0.699565     0.007504
PT3290   PT        0.400715    0.326002    0.699379     0.004505
PT3291   PT        0.398803    0.359909    0.663971     0.004505
PT3292   PT        0.432480    0.326995    0.663980     0.004505
AU3293   AU        0.433363    0.359671    0.700080     0.007504
PT3294   PT        0.466355    0.328125    0.698209     0.004505
AU3295   AU        0.466782    0.361209    0.663419     0.007504
AU3296   AU        0.497794    0.325899    0.663358     0.007504
PT3297   PT        0.498249    0.361066    0.698581     0.004505
AU3298   AU        0.532069    0.326009    0.698919     0.007504
AU3299   AU        0.530665    0.361402    0.663520     0.007504
PT3300   PT        0.564817    0.325080    0.664781     0.004505
PT3301   PT        0.563592    0.362219    0.698503     0.004505
AU3302   AU        0.597742    0.326162    0.699442     0.007504
AU3303   AU        0.596655    0.361255    0.663130     0.007504
AU3304   AU        0.631402    0.325226    0.665605     0.007504
PT3305   PT        0.630761    0.359734    0.698760     0.004505
AU3306   AU        0.664209    0.323513    0.701105     0.007504
PT3307   PT        0.662960    0.359317    0.665072     0.004505
AU3308   AU        0.697112    0.323272    0.664171     0.007504
AU3309   AU        0.698998    0.360429    0.700752     0.007504
PT3310   PT        0.732583    0.325028    0.702125     0.004505
AU3311   AU        0.729788    0.362138    0.666468     0.007504
PT3312   PT        0.102569    0.393389    0.667890     0.004505
PT3313   PT        0.102807    0.430642    0.702967     0.004505
AU3314   AU        0.137755    0.395108    0.701336     0.007504
PT3315   PT        0.138132    0.429705    0.666341     0.004505
PT3316   PT        0.170978    0.391748    0.665702     0.004505
AU3317   AU        0.170744    0.429742    0.701255     0.007504
AU3318   AU        0.203532    0.393914    0.702855     0.007504
AU3319   AU        0.202111    0.427927    0.665872     0.007504
AU3320   AU        0.234566    0.394393    0.664921     0.007504
PT3321   PT        0.236397    0.430091    0.699425     0.004505
AU3322   AU        0.267628    0.396643    0.700058     0.007504
PT3323   PT        0.269217    0.430601    0.662829     0.004505
PT3324   PT        0.301781    0.394753    0.664298     0.004505
PT3325   PT        0.300956    0.430908    0.699226     0.004505
AU3326   AU        0.334077    0.395848    0.700041     0.007504
AU3327   AU        0.333969    0.430725    0.664497     0.007504
AU3328   AU        0.366506    0.393451    0.664607     0.007504
PT3329   PT        0.367218    0.430783    0.700012     0.004505
PT3330   PT        0.399341    0.394547    0.699056     0.004505
PT3331   PT        0.398440    0.431328    0.663327     0.004505
PT3332   PT        0.430628    0.395608    0.663495     0.004505
AU3333   AU        0.430623    0.430378    0.698392     0.007504
PT3334   PT        0.465826    0.395048    0.699487     0.004505
PT3335   PT        0.464933    0.430897    0.663839     0.004505
PT3336   PT        0.497647    0.396677    0.665412     0.004505
PT3337   PT        0.497275    0.430973    0.698998     0.004505
PT3338   PT        0.532464    0.395497    0.700922     0.004505
PT3339   PT        0.531811    0.431364    0.664872     0.004505
PT3340   PT        0.563187    0.395673    0.662990     0.004505
PT3341   PT        0.565058    0.428818    0.700215     0.004505
AU3342   AU        0.595453    0.395167    0.698459     0.007504
AU3343   AU        0.595695    0.430126    0.664115     0.007504
PT3344   PT        0.630724    0.395254    0.666014     0.004505
PT3345   PT        0.628482    0.430764    0.698354     0.004505
AU3346   AU        0.663537    0.396054    0.702089     0.007504
PT3347   PT        0.661357    0.431151    0.662243     0.004505
PT3348   PT        0.692611    0.396887    0.663804     0.004505
AU3349   AU        0.696157    0.430875    0.699055     0.007504
AU3350   AU        0.730530    0.396132    0.702763     0.007504
AU3351   AU        0.730485    0.428487    0.664703     0.007504
AU3352   AU        0.839486    0.375994    0.644084     0.007504
AU3353   AU        0.763340    0.432612    0.702746     0.007504
AU3354   AU        0.103437    0.464066    0.663381     0.007504
AU3355   AU        0.105478    0.495900    0.699288     0.007504
AU3356   AU        0.137654    0.465309    0.701112     0.007504
AU3357   AU        0.135498    0.500110    0.664857     0.007504
AU3358   AU        0.170961    0.464885    0.665306     0.007504
PT3359   PT        0.170993    0.498783    0.698156     0.004505
PT3360   PT        0.203402    0.465040    0.698331     0.004505
PT3361   PT        0.204379    0.499328    0.664361     0.004505
AU3362   AU        0.236726    0.465929    0.663153     0.007504
PT3363   PT        0.238053    0.499226    0.701367     0.004505
PT3364   PT        0.269442    0.465380    0.699361     0.004505
AU3365   AU        0.268803    0.500709    0.664861     0.007504
PT3366   PT        0.302312    0.466426    0.663458     0.004505
PT3367   PT        0.302776    0.499349    0.701625     0.004505
AU3368   AU        0.334101    0.464564    0.698902     0.007504
AU3369   AU        0.334533    0.499055    0.663736     0.007504
AU3370   AU        0.366145    0.464896    0.665212     0.007504
AU3371   AU        0.368019    0.500462    0.699584     0.007504
PT3372   PT        0.399159    0.466678    0.697553     0.004505
PT3373   PT        0.398881    0.500777    0.662653     0.004505
PT3374   PT        0.432920    0.465833    0.664663     0.004505
PT3375   PT        0.431189    0.501506    0.697866     0.004505
AU3376   AU        0.463870    0.467100    0.699220     0.007504
AU3377   AU        0.464777    0.502118    0.663454     0.007504
PT3378   PT        0.497506    0.467066    0.663052     0.004505
PT3379   PT        0.497411    0.503041    0.699898     0.004505
AU3380   AU        0.530630    0.466125    0.698991     0.007504
AU3381   AU        0.530489    0.502104    0.663926     0.007504
PT3382   PT        0.564030    0.464517    0.663746     0.004505
PT3383   PT        0.563817    0.499726    0.699016     0.004505
PT3384   PT        0.597018    0.465357    0.698874     0.004505
PT3385   PT        0.595090    0.500184    0.663895     0.004505
PT3386   PT        0.628275    0.467144    0.664288     0.004505
PT3387   PT        0.628014    0.501207    0.698734     0.004505
AU3388   AU        0.660899    0.465003    0.697196     0.007504
AU3389   AU        0.660665    0.501009    0.662657     0.007504
PT3390   PT        0.694763    0.465873    0.663091     0.004505
PT3391   PT        0.694200    0.499965    0.699057     0.004505
AU3392   AU        0.730464    0.465598    0.697281     0.007504
AU3393   AU        0.727407    0.501516    0.663551     0.007504
AU3394   AU        0.763067    0.464749    0.663723     0.007504
PT3395   PT        0.767575    0.500391    0.698764     0.004505
AU3396   AU        0.101501    0.536144    0.669319     0.007504
AU3397   AU        0.137406    0.534631    0.703152     0.007504
AU3398   AU        0.140017    0.569504    0.665021     0.007504
PT3399   PT        0.170842    0.534584    0.666074     0.004505
AU3400   AU        0.172340    0.568997    0.701597     0.007504
PT3401   PT        0.203819    0.534122    0.698686     0.004505
PT3402   PT        0.203368    0.569788    0.664821     0.004505
AU3403   AU        0.236059    0.534804    0.663388     0.007504
AU3404   AU        0.236241    0.570586    0.698947     0.007504
AU3405   AU        0.269305    0.536813    0.701144     0.007504
AU3406   AU        0.270701    0.571120    0.663416     0.007504
PT3407   PT        0.301575    0.537083    0.664214     0.004505
PT3408   PT        0.302909    0.570063    0.699130     0.004505
PT3409   PT        0.334405    0.534172    0.698690     0.004505
AU3410   AU        0.335920    0.570963    0.663740     0.007504
PT3411   PT        0.365782    0.535924    0.663064     0.004505
PT3412   PT        0.366633    0.570314    0.699575     0.004505
PT3413   PT        0.399648    0.536111    0.698346     0.004505
AU3414   AU        0.398812    0.571016    0.663634     0.007504
AU3415   AU        0.433331    0.536421    0.663887     0.007504
PT3416   PT        0.431959    0.569782    0.700091     0.004505
PT3417   PT        0.465070    0.536805    0.698522     0.004505
PT3418   PT        0.464502    0.571284    0.663910     0.004505
AU3419   AU        0.498489    0.536829    0.664754     0.007504
AU3420   AU        0.497896    0.569509    0.698948     0.007504
PT3421   PT        0.533109    0.535584    0.701350     0.004505
PT3422   PT        0.531684    0.569899    0.662748     0.004505
AU3423   AU        0.562316    0.534851    0.663776     0.007504
AU3424   AU        0.563057    0.571095    0.698873     0.007504
PT3425   PT        0.594982    0.535905    0.698649     0.004505
PT3426   PT        0.594902    0.569493    0.663693     0.004505
PT3427   PT        0.628660    0.534230    0.661449     0.004505
PT3428   PT        0.628133    0.571839    0.697492     0.004505
AU3429   AU        0.660601    0.536325    0.697424     0.007504
PT3430   PT        0.660054    0.571928    0.662474     0.004505
AU3431   AU        0.693087    0.535236    0.661777     0.007504
PT3432   PT        0.696272    0.569943    0.697023     0.004505
PT3433   PT        0.734770    0.535657    0.701894     0.004505
PT3434   PT        0.726361    0.571337    0.661821     0.004505
PT3435   PT        0.800128    0.501082    0.665079     0.004505
PT3436   PT        0.135528    0.601160    0.701197     0.004505
AU3437   AU        0.133050    0.638164    0.667882     0.007504
AU3438   AU        0.170336    0.603568    0.666433     0.007504
PT3439   PT        0.166779    0.637796    0.699245     0.004505
AU3440   AU        0.203021    0.605956    0.702888     0.007504
AU3441   AU        0.202849    0.638247    0.665303     0.007504
AU3442   AU        0.236320    0.603932    0.663578     0.007504
PT3443   PT        0.236549    0.639713    0.700083     0.004505
PT3444   PT        0.269190    0.604376    0.698965     0.004505
PT3445   PT        0.267439    0.640107    0.665417     0.004505
PT3446   PT        0.302087    0.605244    0.663773     0.004505
AU3447   AU        0.301294    0.640968    0.699892     0.007504
PT3448   PT        0.334430    0.605780    0.697365     0.004505
PT3449   PT        0.333626    0.639767    0.664814     0.004505
PT3450   PT        0.367613    0.605438    0.663102     0.004505
PT3451   PT        0.366886    0.641140    0.699372     0.004505
PT3452   PT        0.398294    0.604434    0.699213     0.004505
AU3453   AU        0.399391    0.638274    0.665028     0.007504
AU3454   AU        0.433331    0.606524    0.663957     0.007504
AU3455   AU        0.432584    0.641603    0.698190     0.007504
AU3456   AU        0.463765    0.604704    0.699472     0.007504
PT3457   PT        0.464605    0.641533    0.663424     0.004505
PT3458   PT        0.498232    0.605152    0.662714     0.004505
AU3459   AU        0.498313    0.640871    0.699332     0.007504
PT3460   PT        0.530076    0.604923    0.697895     0.004505
PT3461   PT        0.529187    0.640997    0.665403     0.004505
AU3462   AU        0.562632    0.606569    0.662514     0.007504
PT3463   PT        0.561048    0.641103    0.698548     0.004505
AU3464   AU        0.595605    0.605723    0.695891     0.007504
AU3465   AU        0.595323    0.640189    0.664393     0.007504
PT3466   PT        0.626883    0.604694    0.663809     0.004505
AU3467   AU        0.628125    0.640243    0.700278     0.007504
PT3468   PT        0.661354    0.605565    0.699235     0.004505
AU3469   AU        0.660654    0.640010    0.662731     0.007504
PT3470   PT        0.691639    0.604632    0.662721     0.004505
AU3471   AU        0.693123    0.640718    0.698870     0.007504
AU3472   AU        0.761556    0.604371    0.665345     0.007504
PT3473   PT        0.724768    0.638920    0.663537     0.004505
PT3474   PT        0.171171    0.674975    0.666115     0.004505
AU3475   AU        0.203018    0.672077    0.702580     0.007504
PT3476   PT        0.203338    0.713167    0.663858     0.004505
PT3477   PT        0.235614    0.673907    0.665264     0.004505
PT3478   PT        0.239253    0.709690    0.700537     0.004505
AU3479   AU        0.269849    0.674631    0.702979     0.007504
AU3480   AU        0.268427    0.708678    0.664563     0.007504
AU3481   AU        0.302389    0.675612    0.664177     0.007504
AU3482   AU        0.300575    0.712206    0.702015     0.007504
AU3483   AU        0.334015    0.676214    0.699091     0.007504
PT3484   PT        0.335118    0.710930    0.665776     0.004505
AU3485   AU        0.366064    0.675231    0.664225     0.007504
AU3486   AU        0.366991    0.710681    0.699489     0.007504
AU3487   AU        0.399171    0.676711    0.698022     0.007504
PT3488   PT        0.398766    0.709653    0.662783     0.004505
PT3489   PT        0.432091    0.674910    0.662827     0.004505
PT3490   PT        0.431390    0.711967    0.698613     0.004505
AU3491   AU        0.465785    0.674816    0.698025     0.007504
AU3492   AU        0.462314    0.710247    0.664000     0.007504
AU3493   AU        0.497219    0.676100    0.664815     0.007504
AU3494   AU        0.498013    0.710512    0.699505     0.007504
PT3495   PT        0.530748    0.676884    0.697824     0.004505
PT3496   PT        0.529713    0.709858    0.662497     0.004505
PT3497   PT        0.563936    0.675257    0.664180     0.004505
AU3498   AU        0.563662    0.711780    0.700591     0.007504
PT3499   PT        0.595222    0.674948    0.698202     0.004505
PT3500   PT        0.594792    0.710703    0.664895     0.004505
PT3501   PT        0.628930    0.675732    0.662701     0.004505
AU3502   AU        0.629895    0.712736    0.698603     0.007504
AU3503   AU        0.661198    0.673470    0.697398     0.007504
PT3504   PT        0.663170    0.710880    0.663858     0.004505
PT3505   PT        0.693877    0.678390    0.662965     0.004505
PT3506   PT        0.237193    0.747619    0.667620     0.004505
AU3507   AU        0.268987    0.749119    0.700904     0.007504
AU3508   AU        0.270483    0.781896    0.665828     0.007504
AU3509   AU        0.300687    0.745485    0.665932     0.007504
PT3510   PT        0.302759    0.782080    0.700483     0.004505
PT3511   PT        0.336730    0.746914    0.700745     0.004505
AU3512   AU        0.335019    0.783088    0.663978     0.007504
PT3513   PT        0.367127    0.744385    0.662693     0.004505
AU3514   AU        0.367886    0.780863    0.700672     0.007504
AU3515   AU        0.399318    0.745553    0.699691     0.007504
AU3516   AU        0.399693    0.781597    0.666047     0.007504
PT3517   PT        0.430455    0.746485    0.664861     0.004505
AU3518   AU        0.433737    0.783909    0.701948     0.007504
AU3519   AU        0.462468    0.747900    0.703784     0.007504
AU3520   AU        0.465678    0.778976    0.664822     0.007504
PT3521   PT        0.496681    0.745029    0.665102     0.004505
PT3522   PT        0.497305    0.782079    0.697409     0.004505
PT3523   PT        0.530229    0.746263    0.697407     0.004505
AU3524   AU        0.531670    0.781635    0.664240     0.007504
AU3525   AU        0.563880    0.745858    0.663978     0.007504
PT3526   PT        0.562256    0.781881    0.702524     0.004505
AU3527   AU        0.595159    0.746482    0.697379     0.007504
AU3528   AU        0.601064    0.781449    0.663819     0.007504
AU3529   AU        0.631304    0.748361    0.664077     0.007504
PT3530   PT        0.368196    0.819903    0.664682     0.004505
PT3531   PT        0.399099    0.818288    0.702684     0.004505
PT3532   PT        0.432806    0.817018    0.667388     0.004505
PT3533   PT        0.467505    0.818331    0.700498     0.004505
AU3534   AU        0.498341    0.816736    0.664561     0.007504
PT3535   PT        0.401937    0.144769    0.735217     0.004505
AU3536   AU        0.467300    0.142540    0.734723     0.007504
AU3537   AU        0.269235    0.218699    0.734988     0.007504
PT3538   PT        0.303053    0.179794    0.738979     0.004505
AU3539   AU        0.304699    0.214925    0.773386     0.007504
AU3540   AU        0.336195    0.216515    0.736672     0.007504
AU3541   AU        0.367214    0.178345    0.738487     0.007504
PT3542   PT        0.365695    0.214987    0.771823     0.004505
AU3543   AU        0.400543    0.177892    0.772699     0.007504
PT3544   PT        0.399821    0.213471    0.737617     0.004505
AU3545   AU        0.434195    0.178628    0.741139     0.007504
AU3546   AU        0.433368    0.213923    0.770601     0.007504
PT3547   PT        0.469851    0.176087    0.771282     0.004505
PT3548   PT        0.469930    0.215873    0.739110     0.004505
PT3549   PT        0.502662    0.177300    0.735499     0.004505
AU3550   AU        0.502656    0.209431    0.772217     0.007504
AU3551   AU        0.532780    0.217087    0.736456     0.007504
AU3552   AU        0.565792    0.181968    0.737025     0.007504
AU3553   AU        0.534911    0.216525    0.807504     0.007504
AU3554   AU        0.597887    0.219804    0.738798     0.007504
AU3555   AU        0.204245    0.286437    0.735246     0.007504
AU3556   AU        0.236153    0.253181    0.738824     0.007504
AU3557   AU        0.234987    0.292072    0.773141     0.007504
AU3558   AU        0.269338    0.249673    0.777831     0.007504
AU3559   AU        0.271123    0.286049    0.739152     0.007504
PT3560   PT        0.304245    0.251286    0.737059     0.004505
AU3561   AU        0.303947    0.287185    0.774519     0.007504
AU3562   AU        0.335653    0.250033    0.773187     0.007504
PT3563   PT        0.336439    0.288784    0.736009     0.004505
AU3564   AU        0.367519    0.253837    0.734312     0.007504
PT3565   PT        0.366733    0.289089    0.772701     0.004505
PT3566   PT        0.398361    0.254147    0.770925     0.004505
PT3567   PT        0.398943    0.288450    0.732600     0.004505
AU3568   AU        0.431745    0.249099    0.737707     0.007504
AU3569   AU        0.434752    0.286042    0.772797     0.007504
AU3570   AU        0.469951    0.251090    0.770749     0.007504
AU3571   AU        0.466542    0.290865    0.736008     0.007504
AU3572   AU        0.499671    0.253893    0.734452     0.007504
AU3573   AU        0.500502    0.287932    0.771507     0.007504
AU3574   AU        0.530428    0.248758    0.771092     0.007504
PT3575   PT        0.531356    0.288804    0.736197     0.004505
PT3576   PT        0.565126    0.254407    0.738953     0.004505
AU3577   AU        0.566108    0.288633    0.775949     0.007504
PT3578   PT        0.600948    0.252856    0.775778     0.004505
AU3579   AU        0.601118    0.286314    0.739808     0.007504
AU3580   AU        0.633660    0.253731    0.740540     0.007504
PT3581   PT        0.634065    0.291255    0.774305     0.004505
PT3582   PT        0.666019    0.290704    0.738284     0.004505
AU3583   AU        0.144047    0.309708    0.784633     0.007504
PT3584   PT        0.234584    0.327030    0.810092     0.004505
PT3585   PT        0.205309    0.359914    0.736452     0.004505
AU3586   AU        0.237580    0.324925    0.736680     0.007504
AU3587   AU        0.237523    0.359427    0.772364     0.007504
AU3588   AU        0.269631    0.324235    0.772971     0.007504
AU3589   AU        0.269907    0.360018    0.734825     0.007504
PT3590   PT        0.303351    0.321921    0.737088     0.004505
AU3591   AU        0.303289    0.359431    0.768914     0.007504
AU3592   AU        0.336730    0.324594    0.771153     0.007504
PT3593   PT        0.334832    0.360793    0.732961     0.004505
PT3594   PT        0.368140    0.326231    0.733201     0.004505
AU3595   AU        0.367297    0.359090    0.768112     0.007504
AU3596   AU        0.400393    0.323437    0.769878     0.007504
PT3597   PT        0.401147    0.360312    0.737308     0.004505
PT3598   PT        0.433515    0.323920    0.735258     0.004505
PT3599   PT        0.434037    0.361164    0.769712     0.004505
AU3600   AU        0.466939    0.323876    0.771443     0.007504
AU3601   AU        0.465251    0.360449    0.733646     0.007504
PT3602   PT        0.498153    0.325150    0.736191     0.004505
AU3603   AU        0.497415    0.361398    0.771713     0.007504
AU3604   AU        0.533805    0.322084    0.770383     0.007504
PT3605   PT        0.530707    0.359587    0.735189     0.004505
AU3606   AU        0.564937    0.324305    0.737005     0.007504
AU3607   AU        0.564698    0.362568    0.771860     0.007504
AU3608   AU        0.596856    0.325428    0.773105     0.007504
PT3609   PT        0.595035    0.360105    0.734566     0.004505
AU3610   AU        0.629467    0.322052    0.736440     0.007504
PT3611   PT        0.627753    0.359033    0.769786     0.004505
AU3612   AU        0.664758    0.328950    0.775715     0.007504
AU3613   AU        0.664037    0.357964    0.736525     0.007504
PT3614   PT        0.699230    0.327088    0.739927     0.004505
AU3615   AU        0.136410    0.432480    0.740604     0.007504
PT3616   PT        0.169633    0.398275    0.739066     0.004505
AU3617   AU        0.170315    0.433264    0.774003     0.007504
AU3618   AU        0.203905    0.396760    0.771837     0.007504
PT3619   PT        0.206268    0.429602    0.736022     0.004505
AU3620   AU        0.236115    0.394824    0.736911     0.007504
PT3621   PT        0.236446    0.431521    0.770567     0.004505
PT3622   PT        0.270095    0.395576    0.770346     0.004505
AU3623   AU        0.268053    0.429204    0.735450     0.007504
PT3624   PT        0.301131    0.395713    0.733973     0.004505
AU3625   AU        0.302828    0.428164    0.771175     0.007504
PT3626   PT        0.335871    0.396881    0.768358     0.004505
PT3627   PT        0.334890    0.430667    0.732490     0.004505
AU3628   AU        0.367845    0.395912    0.735636     0.007504
PT3629   PT        0.368782    0.431685    0.768696     0.004505
PT3630   PT        0.399437    0.395574    0.770555     0.004505
PT3631   PT        0.399935    0.431541    0.732620     0.004505
AU3632   AU        0.432541    0.396474    0.732739     0.007504
AU3633   AU        0.433338    0.430418    0.767978     0.007504
PT3634   PT        0.464849    0.395820    0.767894     0.004505
PT3635   PT        0.465897    0.430626    0.733451     0.004505
PT3636   PT        0.500430    0.395724    0.735036     0.004505
PT3637   PT        0.498114    0.430926    0.767797     0.004505
PT3638   PT        0.532132    0.396605    0.768713     0.004505
PT3639   PT        0.531161    0.432523    0.732292     0.004505
PT3640   PT        0.564313    0.396707    0.735952     0.004505
PT3641   PT        0.564235    0.431682    0.770238     0.004505
AU3642   AU        0.596400    0.396298    0.770440     0.007504
PT3643   PT        0.597298    0.429037    0.734050     0.004505
AU3644   AU        0.629299    0.393973    0.733562     0.007504
PT3645   PT        0.629529    0.430588    0.769507     0.004505
PT3646   PT        0.663361    0.395469    0.769091     0.004505
AU3647   AU        0.660734    0.431602    0.734166     0.007504
PT3648   PT        0.698819    0.392051    0.738928     0.004505
AU3649   AU        0.698622    0.430790    0.769971     0.007504
AU3650   AU        0.729598    0.432656    0.735346     0.007504
PT3651   PT        0.138040    0.498477    0.739773     0.004505
PT3652   PT        0.172015    0.465984    0.738459     0.004505
PT3653   PT        0.171008    0.501030    0.777491     0.004505
PT3654   PT        0.204186    0.464836    0.775269     0.004505
PT3655   PT        0.203508    0.502205    0.735942     0.004505
PT3656   PT        0.235347    0.465165    0.735960     0.004505
PT3657   PT        0.236729    0.500053    0.771066     0.004505
AU3658   AU        0.268804    0.464283    0.770837     0.007504
AU3659   AU        0.268303    0.499770    0.736867     0.007504
AU3660   AU        0.300871    0.465360    0.735146     0.007504
AU3661   AU        0.302474    0.499688    0.770356     0.007504
PT3662   PT        0.334442    0.465204    0.771237     0.004505
AU3663   AU        0.335363    0.500286    0.734346     0.007504
AU3664   AU        0.365715    0.464405    0.734778     0.007504
PT3665   PT        0.368324    0.499365    0.767937     0.004505
AU3666   AU        0.401097    0.464215    0.770429     0.007504
PT3667   PT        0.398457    0.499912    0.735370     0.004505
AU3668   AU        0.432951    0.464168    0.734226     0.007504
PT3669   PT        0.431683    0.500510    0.768233     0.004505
AU3670   AU        0.465556    0.466923    0.768976     0.007504
PT3671   PT        0.466056    0.501093    0.733778     0.004505
AU3672   AU        0.498583    0.466199    0.735155     0.007504
PT3673   PT        0.498494    0.499956    0.769245     0.004505
PT3674   PT        0.530704    0.464040    0.769047     0.004505
PT3675   PT        0.531539    0.500718    0.734374     0.004505
PT3676   PT        0.563365    0.464652    0.733195     0.004505
AU3677   AU        0.563900    0.499827    0.769558     0.007504
AU3678   AU        0.597768    0.466053    0.769926     0.007504
AU3679   AU        0.597486    0.499694    0.733256     0.007504
PT3680   PT        0.629400    0.467965    0.735184     0.004505
PT3681   PT        0.629468    0.504014    0.768755     0.004505
AU3682   AU        0.665805    0.466211    0.771883     0.007504
PT3683   PT        0.663654    0.502121    0.734701     0.004505
AU3684   AU        0.694950    0.465101    0.732887     0.007504
PT3685   PT        0.699249    0.500254    0.770023     0.004505
PT3686   PT        0.769149    0.538880    0.734020     0.004505
PT3687   PT        0.169657    0.567569    0.767560     0.004505
AU3688   AU        0.204679    0.533362    0.772151     0.007504
AU3689   AU        0.203837    0.570144    0.737047     0.007504
AU3690   AU        0.236020    0.536059    0.734533     0.007504
PT3691   PT        0.236180    0.569209    0.770739     0.004505
PT3692   PT        0.269954    0.533773    0.769916     0.004505
AU3693   AU        0.267613    0.570494    0.737199     0.007504
AU3694   AU        0.299091    0.534592    0.735906     0.007504
PT3695   PT        0.303213    0.570817    0.769507     0.004505
PT3696   PT        0.336192    0.536816    0.768877     0.004505
AU3697   AU        0.335114    0.571981    0.734141     0.007504
PT3698   PT        0.367559    0.536224    0.734370     0.004505
AU3699   AU        0.366802    0.569765    0.769343     0.007504
PT3700   PT        0.400711    0.535616    0.769759     0.004505
PT3701   PT        0.400697    0.569283    0.735231     0.004505
PT3702   PT        0.432825    0.534908    0.733246     0.004505
PT3703   PT        0.433057    0.569876    0.767455     0.004505
AU3704   AU        0.464894    0.534617    0.769984     0.007504
PT3705   PT        0.464335    0.570032    0.732818     0.004505
AU3706   AU        0.497833    0.535489    0.736157     0.007504
AU3707   AU        0.498235    0.569951    0.770484     0.007504
AU3708   AU        0.530681    0.535072    0.769077     0.007504
AU3709   AU        0.530264    0.570998    0.734431     0.007504
PT3710   PT        0.562934    0.534356    0.733649     0.004505
AU3711   AU        0.563822    0.569762    0.768800     0.007504
AU3712   AU        0.598770    0.537209    0.768738     0.007504
PT3713   PT        0.596166    0.571161    0.733488     0.004505
AU3714   AU        0.630518    0.536489    0.734397     0.007504
PT3715   PT        0.630024    0.570602    0.768012     0.004505
AU3716   AU        0.663548    0.537246    0.772382     0.007504
AU3717   AU        0.662878    0.570752    0.733413     0.007504
PT3718   PT        0.698095    0.540386    0.738163     0.004505
PT3719   PT        0.168952    0.602918    0.735254     0.004505
PT3720   PT        0.201852    0.602364    0.771468     0.004505
PT3721   PT        0.199060    0.640075    0.741079     0.004505
AU3722   AU        0.236588    0.605731    0.736265     0.007504
PT3723   PT        0.236724    0.642825    0.773442     0.004505
PT3724   PT        0.270201    0.606881    0.773041     0.004505
AU3725   AU        0.268906    0.639815    0.737310     0.007504
PT3726   PT        0.301624    0.604674    0.733844     0.004505
PT3727   PT        0.302185    0.638618    0.770285     0.004505
PT3728   PT        0.335533    0.604771    0.769346     0.004505
PT3729   PT        0.335383    0.640544    0.734284     0.004505
AU3730   AU        0.367475    0.605591    0.735633     0.007504
PT3731   PT        0.366394    0.640027    0.769028     0.004505
AU3732   AU        0.399068    0.604587    0.769546     0.007504
PT3733   PT        0.401039    0.639728    0.734140     0.004505
PT3734   PT        0.433171    0.605469    0.734492     0.004505
AU3735   AU        0.431929    0.640778    0.769371     0.007504
AU3736   AU        0.465442    0.604872    0.772358     0.007504
AU3737   AU        0.465717    0.641354    0.736926     0.007504
AU3738   AU        0.497803    0.606215    0.735329     0.007504
AU3739   AU        0.499334    0.640396    0.772433     0.007504
AU3740   AU        0.530834    0.606564    0.770029     0.007504
AU3741   AU        0.529908    0.641613    0.735642     0.007504
PT3742   PT        0.564235    0.605932    0.733741     0.004505
PT3743   PT        0.562750    0.641551    0.770976     0.004505
PT3744   PT        0.594305    0.606411    0.769060     0.004505
AU3745   AU        0.594246    0.641354    0.734505     0.007504
PT3746   PT        0.627072    0.607485    0.734269     0.004505
PT3747   PT        0.626276    0.642057    0.767434     0.004505
PT3748   PT        0.659658    0.606490    0.769930     0.004505
PT3749   PT        0.662118    0.642985    0.735668     0.004505
PT3750   PT        0.696582    0.607169    0.734966     0.004505
AU3751   AU        0.173926    0.669342    0.834024     0.007504
PT3752   PT        0.272413    0.676677    0.773989     0.004505
AU3753   AU        0.269336    0.711040    0.739357     0.007504
PT3754   PT        0.301657    0.675001    0.735717     0.004505
PT3755   PT        0.303233    0.711256    0.770271     0.004505
AU3756   AU        0.335649    0.675865    0.770392     0.007504
AU3757   AU        0.334494    0.711485    0.736387     0.007504
AU3758   AU        0.366686    0.677044    0.733810     0.007504
AU3759   AU        0.368427    0.711152    0.771672     0.007504
PT3760   PT        0.398612    0.675851    0.770460     0.004505
PT3761   PT        0.399805    0.708808    0.735729     0.004505
AU3762   AU        0.433785    0.675123    0.734217     0.007504
AU3763   AU        0.433526    0.712208    0.774293     0.007504
PT3764   PT        0.467537    0.679755    0.770780     0.004505
AU3765   AU        0.464073    0.710928    0.734238     0.007504
PT3766   PT        0.497674    0.675188    0.733437     0.004505
PT3767   PT        0.496065    0.709434    0.768910     0.004505
AU3768   AU        0.529645    0.675376    0.771065     0.007504
AU3769   AU        0.529707    0.709674    0.734295     0.007504
AU3770   AU        0.562632    0.674724    0.735781     0.007504
AU3771   AU        0.562331    0.713465    0.774537     0.007504
AU3772   AU        0.594298    0.678859    0.773166     0.007504
AU3773   AU        0.596449    0.712750    0.735418     0.007504
AU3774   AU        0.629126    0.676497    0.734372     0.007504
PT3775   PT        0.298848    0.749134    0.737215     0.004505
AU3776   AU        0.370485    0.746201    0.738370     0.007504
PT3777   PT        0.399424    0.748299    0.776882     0.004505
PT3778   PT        0.400680    0.782746    0.737548     0.004505
PT3779   PT        0.431760    0.746029    0.738991     0.004505
AU3780   AU        0.466376    0.748625    0.771717     0.007504
AU3781   AU        0.467225    0.784454    0.736097     0.007504
PT3782   PT        0.497815    0.746375    0.732197     0.004505
AU3783   AU        0.564735    0.749351    0.736541     0.007504
AU3784   AU        0.401820    0.213718    0.808228     0.007504
PT3785   PT        0.467487    0.215427    0.804545     0.004505
AU3786   AU        0.266983    0.289155    0.808996     0.007504
PT3787   PT        0.335155    0.286096    0.808746     0.004505
AU3788   AU        0.368943    0.249687    0.807240     0.007504
PT3789   PT        0.371512    0.283231    0.844537     0.004505
AU3790   AU        0.403080    0.288231    0.807506     0.007504
PT3791   PT        0.432070    0.250729    0.808494     0.004505
AU3792   AU        0.434485    0.288349    0.840830     0.007504
PT3793   PT        0.466181    0.284947    0.808365     0.004505
AU3794   AU        0.501932    0.250625    0.808021     0.007504
AU3795   AU        0.497055    0.282577    0.843864     0.007504
AU3796   AU        0.532185    0.288027    0.807890     0.007504
AU3797   AU        0.600329    0.295591    0.813150     0.007504
PT3798   PT        0.269975    0.362356    0.807850     0.004505
AU3799   AU        0.302385    0.324414    0.810767     0.007504
AU3800   AU        0.300434    0.361196    0.843258     0.007504
PT3801   PT        0.370645    0.316815    0.880496     0.004505
PT3802   PT        0.335303    0.361846    0.808674     0.004505
PT3803   PT        0.369763    0.321622    0.808848     0.004505
AU3804   AU        0.366576    0.356178    0.843846     0.007504
PT3805   PT        0.402330    0.325138    0.843631     0.004505
PT3806   PT        0.398815    0.361561    0.803946     0.004505
PT3807   PT        0.434535    0.324442    0.806416     0.004505
PT3808   PT        0.433169    0.361882    0.837548     0.004505
PT3809   PT        0.466967    0.322952    0.842790     0.004505
AU3810   AU        0.466309    0.360724    0.806090     0.007504
PT3811   PT        0.500298    0.321556    0.807913     0.004505
AU3812   AU        0.499253    0.360179    0.838199     0.007504
PT3813   PT        0.530198    0.323780    0.843909     0.004505
AU3814   AU        0.532099    0.359051    0.807050     0.007504
AU3815   AU        0.564591    0.325639    0.808650     0.007504
AU3816   AU        0.562492    0.356615    0.843071     0.007504
PT3817   PT        0.595852    0.362734    0.807968     0.004505
AU3818   AU        0.200868    0.429484    0.810594     0.007504
AU3819   AU        0.236086    0.396938    0.805483     0.007504
PT3820   PT        0.266183    0.395301    0.843520     0.004505
PT3821   PT        0.269603    0.430303    0.806345     0.004505
AU3822   AU        0.302598    0.396378    0.806516     0.007504
AU3823   AU        0.302363    0.428259    0.845977     0.007504
AU3824   AU        0.337730    0.395068    0.844595     0.007504
AU3825   AU        0.336304    0.430008    0.806783     0.007504
AU3826   AU        0.368856    0.395904    0.804565     0.007504
PT3827   PT        0.368502    0.430512    0.841257     0.004505
PT3828   PT        0.399923    0.394894    0.838994     0.004505
PT3829   PT        0.400869    0.430939    0.807627     0.004505
PT3830   PT        0.434235    0.395627    0.804196     0.004505
PT3831   PT        0.433464    0.430359    0.842961     0.004505
PT3832   PT        0.467679    0.397744    0.842330     0.004505
PT3833   PT        0.465338    0.428865    0.802656     0.004505
AU3834   AU        0.498094    0.396429    0.804173     0.007504
AU3835   AU        0.499662    0.431368    0.842656     0.007504
PT3836   PT        0.530298    0.395959    0.844158     0.004505
AU3837   AU        0.530539    0.430909    0.803641     0.007504
AU3838   AU        0.563431    0.395943    0.808327     0.007504
AU3839   AU        0.564138    0.429445    0.844288     0.007504
PT3840   PT        0.594607    0.392911    0.844983     0.004505
PT3841   PT        0.598804    0.433096    0.808615     0.004505
AU3842   AU        0.627523    0.395187    0.803258     0.007504
AU3843   AU        0.630536    0.427262    0.841647     0.007504
AU3844   AU        0.203285    0.499809    0.810077     0.007504
AU3845   AU        0.237375    0.464695    0.808182     0.007504
AU3846   AU        0.269295    0.465857    0.844250     0.007504
AU3847   AU        0.269855    0.499593    0.809210     0.007504
AU3848   AU        0.302539    0.463171    0.809283     0.007504
PT3849   PT        0.304685    0.498336    0.846023     0.004505
AU3850   AU        0.335993    0.463185    0.841910     0.007504
PT3851   PT        0.334945    0.500448    0.807478     0.004505
PT3852   PT        0.368667    0.465733    0.805450     0.004505
AU3853   AU        0.368601    0.500195    0.841483     0.007504
AU3854   AU        0.401789    0.468087    0.843373     0.007504
AU3855   AU        0.401847    0.500422    0.806759     0.007504
AU3856   AU        0.432738    0.464976    0.807437     0.007504
AU3857   AU        0.433729    0.500532    0.840989     0.007504
AU3858   AU        0.464599    0.463320    0.841227     0.007504
PT3859   PT        0.464727    0.499113    0.803867     0.004505
AU3860   AU        0.497468    0.464627    0.804052     0.007504
AU3861   AU        0.498333    0.500396    0.840313     0.007504
PT3862   PT        0.531605    0.465461    0.841824     0.004505
AU3863   AU        0.532002    0.502508    0.804847     0.007504
AU3864   AU        0.563491    0.467136    0.807074     0.007504
AU3865   AU        0.568675    0.499076    0.843609     0.007504
AU3866   AU        0.598623    0.462825    0.846010     0.007504
AU3867   AU        0.597759    0.500309    0.806656     0.007504
AU3868   AU        0.632559    0.470218    0.808805     0.007504
AU3869   AU        0.667481    0.503353    0.806342     0.007504
AU3870   AU        0.237846    0.536565    0.808211     0.007504
AU3871   AU        0.270763    0.535548    0.842698     0.007504
AU3872   AU        0.269738    0.569748    0.806184     0.007504
AU3873   AU        0.301781    0.534055    0.803091     0.007504
AU3874   AU        0.303196    0.571171    0.839912     0.007504
AU3875   AU        0.333268    0.533790    0.842359     0.007504
AU3876   AU        0.335748    0.569877    0.806901     0.007504
PT3877   PT        0.368915    0.533596    0.805810     0.004505
AU3878   AU        0.368925    0.569160    0.847449     0.007504
PT3879   PT        0.400622    0.533437    0.842529     0.004505
AU3880   AU        0.398758    0.571172    0.806649     0.007504
PT3881   PT        0.431357    0.535406    0.805153     0.004505
AU3882   AU        0.433642    0.569262    0.842244     0.007504
AU3883   AU        0.465649    0.535041    0.841007     0.007504
AU3884   AU        0.465844    0.572184    0.806005     0.007504
AU3885   AU        0.494600    0.535835    0.804919     0.007504
AU3886   AU        0.498723    0.569125    0.841908     0.007504
PT3887   PT        0.534465    0.533891    0.842757     0.004505
PT3888   PT        0.530901    0.568553    0.805227     0.004505
PT3889   PT        0.565891    0.535811    0.804170     0.004505
AU3890   AU        0.563652    0.570857    0.841529     0.007504
PT3891   PT        0.598327    0.538129    0.844290     0.004505
AU3892   AU        0.598459    0.570408    0.805825     0.007504
PT3893   PT        0.631862    0.535086    0.809376     0.004505
AU3894   AU        0.268626    0.641358    0.808284     0.007504
PT3895   PT        0.302851    0.604456    0.805818     0.004505
PT3896   PT        0.334357    0.609109    0.843243     0.004505
PT3897   PT        0.332666    0.639553    0.803161     0.004505
PT3898   PT        0.366148    0.606134    0.808229     0.004505
PT3899   PT        0.371228    0.641655    0.843189     0.004505
AU3900   AU        0.401440    0.604608    0.841993     0.007504
AU3901   AU        0.399899    0.639660    0.804570     0.007504
PT3902   PT        0.432935    0.606085    0.806731     0.004505
AU3903   AU        0.433785    0.639142    0.842485     0.007504
PT3904   PT        0.468474    0.606475    0.844621     0.004505
PT3905   PT        0.466581    0.644392    0.807507     0.004505
AU3906   AU        0.499771    0.606568    0.806581     0.007504
AU3907   AU        0.500306    0.646100    0.844596     0.007504
PT3908   PT        0.530736    0.606983    0.840509     0.004505
AU3909   AU        0.534091    0.643155    0.808793     0.007504
PT3910   PT        0.562126    0.605250    0.804637     0.004505
PT3911   PT        0.598903    0.641919    0.804569     0.004505
AU3912   AU        0.368316    0.674324    0.807575     0.007504
PT3913   PT        0.365035    0.710802    0.839425     0.004505
AU3914   AU        0.431404    0.675802    0.804197     0.007504
PT3915   PT        0.467143    0.710700    0.810021     0.004505
PT3916   PT        0.500671    0.679931    0.808903     0.004505
PT3917   PT        0.398538    0.427736    0.874469     0.004505
PT3918   PT        0.432896    0.394523    0.875689     0.004505
AU3919   AU        0.463531    0.429650    0.881959     0.007504
PT3920   PT        0.298433    0.393131    0.881100     0.004505
PT3921   PT        0.400054    0.500610    0.880184     0.004505
AU3922   AU        0.431711    0.466115    0.877820     0.007504
AU3923   AU        0.464780    0.501315    0.875270     0.007504
AU3924   AU        0.496305    0.465206    0.877833     0.007504
AU3925   AU        0.432675    0.534823    0.879320     0.007504
