data_00001
_audit_creation_method   'DISCUS'

_data_chemical_name_common 'Au.cell: Pearson 85'

_cell_length_a             53.0257
_cell_length_b             53.0257
_cell_length_c             53.0257
_cell_angle_alpha     90.0000
_cell_angle_beta      90.0000
_cell_angle_gamma     90.0000

_symmetry_space_group_name_H-M   'P1              '

loop_
_atom_site_label
_atom_site_fract_x
_atom_site_fract_y
_atom_site_fract_z
_atom_site_u_iso_or_equiv
NI        0.366526    0.241742    0.043113     0.004307
NI        0.446064    0.241016    0.040756     0.004307
NI        0.520207    0.242317    0.043865     0.004307
NI        0.281435    0.326055    0.039891     0.004307
NI        0.326495    0.280705    0.046470     0.004307
NI        0.356562    0.317226    0.047987     0.004307
NI        0.402109    0.273776    0.037016     0.004307
NI        0.437203    0.324826    0.035362     0.004307
NI        0.481819    0.278782    0.047587     0.004307
NI        0.528609    0.312681    0.047721     0.004307
NI        0.560094    0.274577    0.049545     0.004307
NI        0.593518    0.317666    0.044720     0.004307
NI        0.246708    0.363893    0.043150     0.004307
NI        0.279869    0.399232    0.043907     0.004307
NI        0.318105    0.359652    0.042181     0.004307
NI        0.359293    0.397816    0.040452     0.004307
NI        0.402443    0.359712    0.038400     0.004307
NI        0.399358    0.399634    0.012040     0.004307
NI        0.437094    0.366356    0.004021     0.004307
NI        0.442881    0.402960    0.034223     0.004307
NI        0.477929    0.369701    0.027660     0.004307
NI        0.478047    0.407981    0.000769     0.004307
NI        0.514547    0.403229    0.029452     0.004307
NI        0.561425    0.351745    0.047278     0.004307
NI        0.599456    0.400560    0.046313     0.004307
NI        0.638241    0.362498    0.044422     0.004307
NI        0.246949    0.445125    0.045956     0.004307
NI        0.284642    0.474119    0.053779     0.004307
NI        0.321387    0.435665    0.038980     0.004307
NI        0.363025    0.434513    0.011672     0.004307
NI        0.367232    0.478578    0.028426     0.004307
NI        0.403139    0.441753    0.035030     0.004307
NI        0.408712    0.476722    0.003021     0.004307
NI        0.442280    0.441577    0.005476     0.004307
NI        0.444761    0.473974    0.038192     0.004307
NI        0.480694    0.440064    0.035583     0.004307
NI        0.481421    0.478591    0.009127     0.004307
NI        0.514138    0.442760    0.002599     0.004307
NI        0.521567    0.480272    0.033463     0.004307
NI        0.568541    0.440284    0.041540     0.004307
NI        0.608333    0.476726    0.046835     0.004307
NI        0.644579    0.437698    0.050174     0.004307
NI        0.244884    0.509519    0.042802     0.004307
NI        0.282533    0.560011    0.049322     0.004307
NI        0.318882    0.523565    0.043246     0.004307
NI        0.360033    0.563098    0.045251     0.004307
NI        0.401718    0.515977    0.030912     0.004307
NI        0.444901    0.508571    0.008098     0.004307
NI        0.447501    0.549941    0.034022     0.004307
NI        0.480886    0.518557    0.033449     0.004307
NI        0.527272    0.565726    0.044631     0.004307
NI        0.566937    0.527919    0.041594     0.004307
NI        0.606577    0.561850    0.048998     0.004307
NI        0.645241    0.510622    0.042145     0.004307
NI        0.321286    0.599884    0.050252     0.004307
NI        0.365124    0.636538    0.048194     0.004307
NI        0.396134    0.599522    0.045704     0.004307
NI        0.439805    0.630918    0.056725     0.004307
NI        0.483647    0.604246    0.048148     0.004307
NI        0.517361    0.639565    0.045020     0.004307
NI        0.563335    0.603445    0.051081     0.004307
NI        0.293039    0.175135    0.112885     0.004307
NI        0.375573    0.172730    0.107690     0.004307
NI        0.412306    0.139348    0.106292     0.004307
NI        0.411538    0.174128    0.073700     0.004307
NI        0.446708    0.173908    0.107885     0.004307
NI        0.483106    0.139484    0.106270     0.004307
NI        0.485293    0.172405    0.072305     0.004307
NI        0.519088    0.173392    0.107998     0.004307
NI        0.595491    0.173161    0.111159     0.004307
NI        0.216804    0.252559    0.109739     0.004307
NI        0.255050    0.212368    0.109119     0.004307
NI        0.253839    0.249898    0.080721     0.004307
NI        0.294978    0.246125    0.104316     0.004307
NI        0.327206    0.211556    0.111652     0.004307
NI        0.332559    0.241129    0.076069     0.004307
NI        0.368431    0.208181    0.074481     0.004307
NI        0.367566    0.246012    0.106467     0.004307
NI        0.409185    0.207361    0.106960     0.004307
NI        0.406121    0.241132    0.071658     0.004307
NI        0.447903    0.208664    0.077033     0.004307
NI        0.442749    0.248707    0.101075     0.004307
NI        0.481116    0.203608    0.109113     0.004307
NI        0.482173    0.241129    0.076885     0.004307
NI        0.517116    0.207277    0.073256     0.004307
NI        0.521940    0.238482    0.105587     0.004307
NI        0.556638    0.205863    0.109825     0.004307
NI        0.557851    0.234558    0.074679     0.004307
NI        0.592733    0.237148    0.104638     0.004307
NI        0.633403    0.207525    0.111345     0.004307
NI        0.632600    0.248719    0.083517     0.004307
NI        0.669125    0.248180    0.113295     0.004307
NI        0.181782    0.286618    0.108969     0.004307
NI        0.212967    0.326425    0.109524     0.004307
NI        0.242308    0.291138    0.107009     0.004307
NI        0.246337    0.324455    0.073570     0.004307
NI        0.280151    0.288483    0.073399     0.004307
NI        0.283224    0.323417    0.105582     0.004307
NI        0.328397    0.281076    0.102183     0.004307
NI        0.317211    0.316287    0.072935     0.004307
NI        0.368047    0.277061    0.072485     0.004307
AU        0.363379    0.320938    0.096936     0.007504
NI        0.404072    0.283918    0.099412     0.004307
NI        0.400578    0.313028    0.061994     0.004307
NI        0.437660    0.280197    0.065032     0.004307
AU        0.446669    0.321965    0.092469     0.007504
NI        0.480213    0.282891    0.097936     0.004307
NI        0.484797    0.329535    0.054530     0.004307
NI        0.521389    0.275507    0.076899     0.004307
AU        0.516006    0.324362    0.093582     0.007504
NI        0.561984    0.272518    0.104039     0.004307
NI        0.562930    0.311660    0.082752     0.004307
NI        0.598900    0.282668    0.074442     0.004307
NI        0.603218    0.321208    0.102628     0.004307
NI        0.641919    0.288554    0.107925     0.004307
NI        0.633965    0.320525    0.068547     0.004307
NI        0.674836    0.324188    0.106808     0.004307
NI        0.708582    0.285964    0.106052     0.004307
NI        0.142695    0.402160    0.108737     0.004307
NI        0.179455    0.362162    0.111363     0.004307
NI        0.177728    0.396513    0.076198     0.004307
NI        0.210314    0.364086    0.078668     0.004307
NI        0.211480    0.399569    0.108645     0.004307
NI        0.247128    0.362903    0.105560     0.004307
NI        0.245488    0.398883    0.077620     0.004307
NI        0.281149    0.361329    0.074314     0.004307
NI        0.285444    0.395867    0.104189     0.004307
AU        0.324771    0.359557    0.099866     0.007504
NI        0.318011    0.398940    0.069075     0.004307
NI        0.359738    0.359633    0.064458     0.004307
AU        0.363358    0.399610    0.095695     0.007504
AU        0.400722    0.358585    0.092882     0.007504
NI        0.403875    0.400732    0.060191     0.004307
NI        0.442516    0.364705    0.061473     0.004307
AU        0.444152    0.398001    0.095174     0.007504
AU        0.484036    0.365841    0.093516     0.007504
NI        0.481446    0.402388    0.062413     0.004307
NI        0.516372    0.364846    0.056725     0.004307
AU        0.522547    0.402225    0.093971     0.007504
AU        0.553964    0.361800    0.090506     0.007504
NI        0.553277    0.397758    0.055041     0.004307
NI        0.601255    0.359547    0.073066     0.004307
NI        0.593631    0.399928    0.096808     0.004307
NI        0.637253    0.354266    0.100549     0.004307
NI        0.638800    0.397806    0.076709     0.004307
NI        0.675500    0.364581    0.074145     0.004307
NI        0.681177    0.401698    0.103857     0.004307
NI        0.710834    0.363167    0.105424     0.004307
NI        0.718516    0.399721    0.074028     0.004307
NI        0.747879    0.398081    0.109951     0.004307
NI        0.142449    0.472616    0.110681     0.004307
NI        0.175262    0.434983    0.109443     0.004307
NI        0.176185    0.470516    0.074154     0.004307
NI        0.207220    0.434685    0.074784     0.004307
NI        0.207328    0.471317    0.108242     0.004307
NI        0.241095    0.436144    0.106538     0.004307
NI        0.245227    0.479361    0.081815     0.004307
NI        0.280452    0.432267    0.076184     0.004307
NI        0.285748    0.476331    0.099675     0.004307
AU        0.324432    0.444199    0.096088     0.007504
NI        0.329469    0.478176    0.057472     0.004307
NI        0.367601    0.439238    0.063008     0.004307
AU        0.365768    0.477631    0.092999     0.007504
AU        0.406261    0.439310    0.095075     0.007504
NI        0.405039    0.479539    0.059430     0.004307
NI        0.440015    0.436785    0.062071     0.004307
AU        0.444950    0.475923    0.094736     0.007504
AU        0.482718    0.437497    0.096361     0.007504
NI        0.485297    0.478077    0.061180     0.004307
NI        0.521617    0.437970    0.061399     0.004307
AU        0.522129    0.477274    0.094502     0.007504
AU        0.562744    0.442352    0.089367     0.007504
NI        0.561031    0.482771    0.061357     0.004307
NI        0.610019    0.440110    0.077855     0.004307
NI        0.600477    0.481139    0.100206     0.004307
NI        0.648676    0.436261    0.104919     0.004307
NI        0.641058    0.483450    0.079915     0.004307
NI        0.685539    0.436848    0.073835     0.004307
NI        0.681284    0.472214    0.106087     0.004307
NI        0.716217    0.437698    0.108146     0.004307
NI        0.715636    0.476838    0.071773     0.004307
NI        0.749030    0.472387    0.106015     0.004307
NI        0.174335    0.506958    0.109871     0.004307
NI        0.209790    0.511599    0.080617     0.004307
NI        0.210570    0.552956    0.105788     0.004307
NI        0.246128    0.519236    0.106926     0.004307
NI        0.242247    0.551845    0.070977     0.004307
NI        0.279278    0.517405    0.072842     0.004307
NI        0.279296    0.551024    0.105808     0.004307
AU        0.324272    0.514118    0.093901     0.007504
NI        0.319459    0.560331    0.077978     0.004307
NI        0.364525    0.516068    0.059674     0.004307
AU        0.366729    0.552695    0.093610     0.007504
AU        0.402502    0.514518    0.094732     0.007504
NI        0.405253    0.553335    0.060464     0.004307
NI        0.442569    0.514729    0.061508     0.004307
AU        0.443771    0.551657    0.098306     0.007504
AU        0.484810    0.516213    0.094022     0.007504
NI        0.484377    0.557578    0.065445     0.004307
NI        0.523441    0.518312    0.060076     0.004307
AU        0.522872    0.556562    0.096859     0.007504
AU        0.559655    0.516624    0.095857     0.007504
NI        0.567765    0.563759    0.075622     0.004307
NI        0.609495    0.520105    0.072781     0.004307
NI        0.608423    0.557393    0.101879     0.004307
NI        0.642897    0.520295    0.107139     0.004307
NI        0.647011    0.550161    0.072675     0.004307
NI        0.678797    0.511524    0.076589     0.004307
NI        0.680180    0.549499    0.105119     0.004307
NI        0.716018    0.510084    0.106915     0.004307
NI        0.177395    0.587848    0.109508     0.004307
NI        0.210893    0.628244    0.107473     0.004307
NI        0.242539    0.588550    0.105125     0.004307
NI        0.251014    0.631000    0.083119     0.004307
NI        0.284592    0.596373    0.082412     0.004307
NI        0.290752    0.640236    0.104773     0.004307
NI        0.326973    0.600458    0.104229     0.004307
NI        0.328594    0.640129    0.077551     0.004307
NI        0.362788    0.597927    0.076902     0.004307
NI        0.361876    0.635031    0.109402     0.004307
NI        0.403284    0.591467    0.097008     0.004307
NI        0.399675    0.634939    0.080408     0.004307
NI        0.440849    0.585921    0.062789     0.004307
NI        0.444122    0.629345    0.101946     0.004307
NI        0.480796    0.591811    0.095428     0.004307
NI        0.484561    0.637220    0.081011     0.004307
NI        0.519682    0.603101    0.076641     0.004307
NI        0.527606    0.638934    0.111302     0.004307
NI        0.559901    0.603290    0.103249     0.004307
NI        0.556364    0.644242    0.075001     0.004307
NI        0.600297    0.599898    0.082914     0.004307
NI        0.594511    0.646750    0.102410     0.004307
NI        0.645162    0.589285    0.101997     0.004307
NI        0.634176    0.632274    0.086534     0.004307
NI        0.675072    0.629515    0.110140     0.004307
NI        0.707924    0.593015    0.110703     0.004307
NI        0.252626    0.667454    0.113519     0.004307
NI        0.295356    0.706106    0.113266     0.004307
NI        0.329726    0.675728    0.109838     0.004307
NI        0.370792    0.670209    0.078119     0.004307
NI        0.373282    0.708243    0.111073     0.004307
NI        0.404968    0.673542    0.109965     0.004307
NI        0.408025    0.705057    0.076707     0.004307
NI        0.446748    0.671295    0.080535     0.004307
NI        0.446096    0.706746    0.110524     0.004307
NI        0.484577    0.672818    0.110660     0.004307
NI        0.482760    0.707731    0.074595     0.004307
NI        0.519864    0.672211    0.080564     0.004307
NI        0.517811    0.709419    0.110305     0.004307
NI        0.556350    0.674838    0.109855     0.004307
NI        0.593722    0.704246    0.112917     0.004307
NI        0.633152    0.674428    0.108333     0.004307
NI        0.409824    0.739999    0.110415     0.004307
NI        0.484450    0.743964    0.109741     0.004307
NI        0.288446    0.106115    0.177298     0.004307
NI        0.371023    0.102645    0.172286     0.004307
NI        0.407319    0.070138    0.175272     0.004307
NI        0.407371    0.102134    0.139699     0.004307
NI        0.444905    0.104335    0.172256     0.004307
NI        0.479577    0.069157    0.175444     0.004307
NI        0.481602    0.101204    0.141064     0.004307
NI        0.517653    0.103164    0.172620     0.004307
NI        0.597509    0.108263    0.179548     0.004307
NI        0.217426    0.176822    0.179118     0.004307
NI        0.249818    0.139066    0.175089     0.004307
NI        0.251837    0.172821    0.141375     0.004307
NI        0.295560    0.140685    0.143190     0.004307
NI        0.284486    0.173318    0.172821     0.004307
NI        0.332815    0.132528    0.170001     0.004307
NI        0.335527    0.166188    0.133729     0.004307
NI        0.375575    0.137768    0.141422     0.004307
NI        0.371157    0.170078    0.173777     0.004307
NI        0.408861    0.133670    0.172276     0.004307
NI        0.410882    0.172372    0.141208     0.004307
NI        0.449039    0.136000    0.137253     0.004307
NI        0.446147    0.167978    0.174821     0.004307
NI        0.481185    0.134549    0.173937     0.004307
NI        0.480926    0.170228    0.141917     0.004307
NI        0.516475    0.135675    0.140057     0.004307
NI        0.520486    0.167278    0.174093     0.004307
NI        0.556503    0.130396    0.173637     0.004307
NI        0.557503    0.168765    0.140490     0.004307
NI        0.597490    0.140089    0.146676     0.004307
NI        0.598316    0.174355    0.178367     0.004307
NI        0.635022    0.140457    0.178770     0.004307
NI        0.633527    0.174478    0.146971     0.004307
NI        0.668917    0.177347    0.180241     0.004307
NI        0.146658    0.251365    0.179899     0.004307
NI        0.184400    0.216032    0.175316     0.004307
NI        0.181692    0.253801    0.141595     0.004307
NI        0.218421    0.212704    0.139267     0.004307
NI        0.215191    0.249196    0.174632     0.004307
NI        0.253520    0.209045    0.173215     0.004307
NI        0.251468    0.246656    0.143439     0.004307
NI        0.289257    0.214026    0.137989     0.004307
AU        0.292688    0.244572    0.175124     0.007504
AU        0.327108    0.202599    0.168629     0.007504
NI        0.326499    0.248382    0.138252     0.004307
NI        0.367581    0.205508    0.137682     0.004307
AU        0.364627    0.245817    0.173209     0.007504
AU        0.406245    0.207519    0.173491     0.007504
AU        0.406167    0.244755    0.137328     0.007504
NI        0.443086    0.207585    0.140779     0.004307
AU        0.443378    0.245587    0.175339     0.007504
AU        0.482883    0.206078    0.174407     0.007504
AU        0.481483    0.245591    0.134257     0.007504
NI        0.520086    0.202498    0.140352     0.004307
AU        0.521853    0.244978    0.171040     0.007504
AU        0.559984    0.204551    0.176702     0.007504
NI        0.559787    0.244155    0.140630     0.004307
NI        0.595850    0.208625    0.142378     0.004307
AU        0.595451    0.248341    0.175822     0.007504
NI        0.634956    0.211574    0.174955     0.004307
NI        0.632198    0.242422    0.143702     0.004307
NI        0.668430    0.210451    0.144659     0.004307
NI        0.672753    0.248128    0.173952     0.004307
NI        0.704511    0.212008    0.179770     0.004307
NI        0.707199    0.248690    0.142258     0.004307
NI        0.742197    0.251145    0.177205     0.004307
NI        0.111340    0.283422    0.178342     0.004307
NI        0.145959    0.287985    0.146069     0.004307
NI        0.142473    0.327682    0.174961     0.004307
NI        0.178665    0.286592    0.177653     0.004307
NI        0.177121    0.323522    0.141738     0.004307
NI        0.212768    0.288498    0.144053     0.004307
AU        0.211945    0.324422    0.177414     0.007504
AU        0.253168    0.285388    0.172432     0.007504
NI        0.249000    0.325672    0.138499     0.004307
AU        0.288839    0.281148    0.135458     0.007504
AU        0.289284    0.322882    0.175472     0.007504
AU        0.329815    0.284700    0.171892     0.007504
AU        0.325725    0.322013    0.135128     0.007504
AU        0.367697    0.282665    0.135396     0.007504
AU        0.363442    0.324380    0.176491     0.007504
AU        0.402441    0.285019    0.176828     0.007504
AU        0.403159    0.321609    0.135835     0.007504
AU        0.442199    0.282953    0.134192     0.007504
AU        0.441974    0.321376    0.171506     0.007504
AU        0.482110    0.283985    0.174897     0.007504
AU        0.480208    0.320233    0.133849     0.007504
AU        0.520626    0.282012    0.132632     0.007504
AU        0.520786    0.321564    0.170198     0.007504
AU        0.558589    0.284530    0.172350     0.007504
AU        0.558112    0.320088    0.131509     0.007504
AU        0.600057    0.279904    0.132932     0.007504
AU        0.598687    0.321688    0.168658     0.007504
AU        0.637259    0.286462    0.172028     0.007504
NI        0.636421    0.324161    0.136602     0.004307
NI        0.677242    0.286852    0.141412     0.004307
AU        0.674372    0.324923    0.171731     0.007504
NI        0.714329    0.286042    0.175408     0.004307
NI        0.712499    0.324606    0.137915     0.004307
NI        0.742110    0.285994    0.138955     0.004307
NI        0.747010    0.325608    0.174722     0.004307
NI        0.776427    0.284948    0.177518     0.004307
NI        0.073123    0.397066    0.176729     0.004307
NI        0.109974    0.365141    0.175231     0.004307
NI        0.106872    0.400294    0.141515     0.004307
NI        0.142915    0.362464    0.141945     0.004307
NI        0.140479    0.401225    0.178962     0.004307
NI        0.174509    0.361508    0.174884     0.004307
NI        0.175668    0.398763    0.141497     0.004307
NI        0.210752    0.360646    0.142125     0.004307
AU        0.212134    0.401325    0.177303     0.007504
AU        0.250003    0.360155    0.175539     0.007504
AU        0.249239    0.400841    0.139967     0.007504
AU        0.287521    0.361266    0.137249     0.007504
AU        0.289451    0.402927    0.173863     0.007504
AU        0.327845    0.362761    0.173699     0.007504
AU        0.324954    0.402817    0.133365     0.007504
AU        0.364872    0.361380    0.136331     0.007504
AU        0.367365    0.398871    0.173215     0.007504
AU        0.402823    0.359834    0.173549     0.007504
AU        0.402576    0.400765    0.133415     0.007504
AU        0.441099    0.359132    0.134390     0.007504
AU        0.440975    0.396766    0.171475     0.007504
AU        0.482922    0.361885    0.172434     0.007504
AU        0.479194    0.396642    0.134470     0.007504
AU        0.520999    0.360962    0.133213     0.007504
AU        0.523155    0.400881    0.170512     0.007504
AU        0.559485    0.360725    0.167739     0.007504
AU        0.560888    0.403445    0.131195     0.007504
AU        0.596082    0.363025    0.130395     0.007504
AU        0.597579    0.400525    0.169138     0.007504
AU        0.635967    0.362699    0.171533     0.007504
AU        0.638263    0.396955    0.127818     0.007504
NI        0.676054    0.360128    0.136808     0.004307
AU        0.678198    0.399109    0.172179     0.007504
NI        0.711579    0.360707    0.174854     0.004307
NI        0.712805    0.399976    0.138136     0.004307
NI        0.741580    0.363495    0.141477     0.004307
NI        0.746054    0.401699    0.171254     0.004307
NI        0.779813    0.367303    0.172365     0.004307
NI        0.781062    0.403082    0.141259     0.004307
NI        0.817100    0.397396    0.178145     0.004307
NI        0.073679    0.471694    0.179975     0.004307
NI        0.107115    0.438331    0.176356     0.004307
NI        0.108831    0.472406    0.145128     0.004307
NI        0.143204    0.436473    0.145309     0.004307
NI        0.142985    0.477405    0.177165     0.004307
NI        0.175062    0.439916    0.178242     0.004307
NI        0.176073    0.475786    0.143353     0.004307
NI        0.211073    0.435642    0.141837     0.004307
AU        0.212398    0.475736    0.175353     0.007504
AU        0.248450    0.439284    0.174011     0.007504
AU        0.249972    0.477721    0.132299     0.007504
AU        0.286661    0.440828    0.133127     0.007504
AU        0.287482    0.476511    0.173253     0.007504
AU        0.328970    0.442110    0.172756     0.007504
AU        0.324513    0.479181    0.135707     0.007504
AU        0.364178    0.440610    0.134454     0.007504
AU        0.367041    0.478251    0.172605     0.007504
AU        0.404361    0.438459    0.173209     0.007504
AU        0.406807    0.478904    0.133838     0.007504
AU        0.442208    0.436058    0.136548     0.007504
AU        0.446192    0.477474    0.172766     0.007504
AU        0.480091    0.439940    0.171452     0.007504
AU        0.483392    0.477259    0.131089     0.007504
AU        0.520367    0.439087    0.132122     0.007504
AU        0.523230    0.475138    0.170985     0.007504
AU        0.561989    0.440071    0.171598     0.007504
AU        0.561263    0.478294    0.133916     0.007504
AU        0.596925    0.437942    0.130765     0.007504
AU        0.601906    0.476646    0.170447     0.007504
AU        0.637201    0.437440    0.171030     0.007504
AU        0.639054    0.477170    0.132398     0.007504
NI        0.680939    0.436875    0.138719     0.004307
AU        0.678600    0.474771    0.172122     0.007504
NI        0.713973    0.436517    0.173374     0.004307
NI        0.713016    0.474239    0.140086     0.004307
NI        0.751226    0.438035    0.138386     0.004307
NI        0.747216    0.472421    0.173060     0.004307
NI        0.780793    0.438113    0.176199     0.004307
NI        0.782608    0.476914    0.143493     0.004307
NI        0.814547    0.478332    0.178792     0.004307
NI        0.104357    0.511389    0.173709     0.004307
NI        0.140660    0.511012    0.143667     0.004307
NI        0.140982    0.550844    0.174041     0.004307
NI        0.175085    0.511491    0.176245     0.004307
NI        0.176909    0.547317    0.139310     0.004307
NI        0.211374    0.512668    0.139972     0.004307
AU        0.211936    0.554412    0.173605     0.007504
AU        0.251442    0.516686    0.174838     0.007504
NI        0.246982    0.554637    0.140007     0.004307
AU        0.288675    0.516288    0.136441     0.007504
AU        0.286815    0.555981    0.170009     0.007504
AU        0.325933    0.518883    0.173776     0.007504
AU        0.324909    0.556906    0.128269     0.007504
AU        0.363159    0.516115    0.132680     0.007504
AU        0.363525    0.554366    0.171641     0.007504
AU        0.404752    0.515012    0.173881     0.007504
AU        0.404949    0.551304    0.133712     0.007504
AU        0.446171    0.513305    0.133244     0.007504
AU        0.443939    0.552452    0.172666     0.007504
AU        0.484930    0.513492    0.172576     0.007504
AU        0.482623    0.556024    0.135092     0.007504
AU        0.522542    0.514038    0.133257     0.007504
AU        0.523359    0.553722    0.170161     0.007504
AU        0.563415    0.513765    0.171313     0.007504
AU        0.560982    0.557984    0.134182     0.007504
AU        0.602520    0.517978    0.132503     0.007504
AU        0.601225    0.555124    0.170966     0.007504
AU        0.640458    0.515460    0.170568     0.007504
NI        0.640163    0.555587    0.136476     0.004307
NI        0.681616    0.515193    0.137335     0.004307
AU        0.679633    0.554289    0.172296     0.007504
NI        0.716020    0.515349    0.177038     0.004307
NI        0.718047    0.545897    0.138809     0.004307
NI        0.748447    0.511682    0.141915     0.004307
NI        0.754915    0.550859    0.170009     0.004307
NI        0.781435    0.512404    0.175355     0.004307
NI        0.110799    0.591110    0.177996     0.004307
NI        0.146328    0.590309    0.145942     0.004307
NI        0.144275    0.627868    0.181553     0.004307
NI        0.177771    0.596193    0.179452     0.004307
NI        0.175298    0.630031    0.143628     0.004307
NI        0.212336    0.594594    0.144305     0.004307
NI        0.213212    0.631506    0.177016     0.004307
AU        0.250977    0.594871    0.173932     0.007504
NI        0.246049    0.629870    0.138299     0.004307
AU        0.285145    0.596475    0.131760     0.007504
AU        0.289879    0.631017    0.173625     0.007504
AU        0.326494    0.594271    0.169457     0.007504
NI        0.324150    0.635589    0.138174     0.004307
AU        0.365702    0.590653    0.132729     0.007504
AU        0.366642    0.632894    0.167691     0.007504
AU        0.404722    0.592842    0.172121     0.007504
AU        0.404844    0.631453    0.133538     0.007504
AU        0.440947    0.591568    0.135283     0.007504
AU        0.444974    0.632484    0.171225     0.007504
AU        0.481317    0.592758    0.171712     0.007504
AU        0.480855    0.629654    0.132783     0.007504
AU        0.520156    0.594310    0.133631     0.007504
AU        0.521611    0.632244    0.168924     0.007504
AU        0.563537    0.593721    0.172835     0.007504
NI        0.566313    0.635664    0.137983     0.004307
AU        0.603858    0.598036    0.132102     0.007504
AU        0.599721    0.631508    0.176035     0.007504
AU        0.636073    0.594995    0.173428     0.007504
NI        0.637815    0.634705    0.137198     0.004307
NI        0.671182    0.592701    0.139118     0.004307
NI        0.674055    0.630686    0.174748     0.004307
NI        0.707894    0.597227    0.172999     0.004307
NI        0.707400    0.632098    0.141555     0.004307
NI        0.744761    0.587944    0.143469     0.004307
NI        0.744161    0.627171    0.172343     0.004307
NI        0.780546    0.590196    0.176026     0.004307
NI        0.178812    0.663723    0.182974     0.004307
NI        0.212837    0.667775    0.144603     0.004307
NI        0.216278    0.704377    0.181582     0.004307
NI        0.249865    0.668972    0.175981     0.004307
NI        0.251959    0.704212    0.145446     0.004307
NI        0.286640    0.669941    0.143695     0.004307
NI        0.288546    0.703512    0.176927     0.004307
AU        0.326377    0.670970    0.173749     0.007504
NI        0.335209    0.708019    0.142855     0.004307
NI        0.367691    0.672704    0.139532     0.004307
NI        0.369342    0.707842    0.173992     0.004307
AU        0.406296    0.668380    0.170153     0.007504
NI        0.410073    0.708866    0.142202     0.004307
NI        0.445558    0.667767    0.135634     0.004307
NI        0.446736    0.705144    0.171763     0.004307
AU        0.482126    0.670190    0.171678     0.007504
NI        0.482722    0.709524    0.141784     0.004307
NI        0.520059    0.677236    0.140832     0.004307
NI        0.521630    0.709499    0.176786     0.004307
AU        0.561472    0.670372    0.173427     0.007504
NI        0.556033    0.710708    0.142190     0.004307
NI        0.600765    0.668526    0.144383     0.004307
NI        0.598782    0.704305    0.178972     0.004307
NI        0.636941    0.663884    0.175779     0.004307
NI        0.634050    0.702180    0.146926     0.004307
NI        0.672580    0.665799    0.145907     0.004307
NI        0.671700    0.703913    0.181365     0.004307
NI        0.708701    0.666566    0.178773     0.004307
NI        0.256132    0.737952    0.180828     0.004307
NI        0.289803    0.738405    0.146387     0.004307
NI        0.294152    0.773863    0.178914     0.004307
NI        0.334219    0.743184    0.172952     0.004307
NI        0.372733    0.742067    0.144138     0.004307
NI        0.373250    0.775344    0.177219     0.004307
NI        0.411073    0.743216    0.172561     0.004307
NI        0.407619    0.775569    0.140888     0.004307
NI        0.447876    0.743477    0.139792     0.004307
NI        0.446974    0.774192    0.174023     0.004307
NI        0.482024    0.743025    0.176085     0.004307
NI        0.483411    0.777002    0.143015     0.004307
NI        0.517163    0.741943    0.143879     0.004307
NI        0.518362    0.779983    0.175315     0.004307
NI        0.556738    0.743509    0.176879     0.004307
NI        0.597912    0.737988    0.146419     0.004307
NI        0.599898    0.774398    0.180714     0.004307
NI        0.633962    0.737972    0.181752     0.004307
NI        0.410513    0.807286    0.178253     0.004307
NI        0.480423    0.810804    0.177502     0.004307
NI        0.367440    0.038130    0.240278     0.004307
NI        0.443168    0.046108    0.244535     0.004307
NI        0.521534    0.041575    0.245171     0.004307
NI        0.213286    0.111416    0.256545     0.004307
NI        0.250658    0.085505    0.252033     0.004307
NI        0.248857    0.104132    0.207623     0.004307
NI        0.294538    0.102966    0.246549     0.004307
NI        0.331202    0.069631    0.242515     0.004307
NI        0.325936    0.105966    0.207293     0.004307
NI        0.364993    0.073185    0.206275     0.004307
NI        0.363324    0.102509    0.244127     0.004307
NI        0.399509    0.072353    0.243076     0.004307
NI        0.405046    0.102196    0.207954     0.004307
NI        0.444581    0.076204    0.209193     0.004307
NI        0.441577    0.094964    0.253142     0.004307
NI        0.483996    0.072561    0.248369     0.004307
NI        0.483411    0.103852    0.208634     0.004307
NI        0.520464    0.072886    0.207203     0.004307
NI        0.522660    0.103225    0.242279     0.004307
NI        0.555700    0.070519    0.244687     0.004307
NI        0.559901    0.106065    0.212622     0.004307
NI        0.597801    0.101313    0.242865     0.004307
NI        0.635783    0.076634    0.254757     0.004307
NI        0.636725    0.106028    0.212789     0.004307
NI        0.672763    0.106429    0.249413     0.004307
NI        0.140845    0.174773    0.253432     0.004307
NI        0.176040    0.139716    0.253502     0.004307
NI        0.180295    0.180174    0.212875     0.004307
NI        0.216894    0.140455    0.215908     0.004307
NI        0.210916    0.176268    0.247261     0.004307
NI        0.252607    0.134457    0.246720     0.004307
NI        0.251669    0.173481    0.214473     0.004307
NI        0.285727    0.136078    0.211707     0.004307
AU        0.291704    0.168240    0.248783     0.007504
NI        0.330197    0.135918    0.243658     0.004307
AU        0.327035    0.167136    0.205255     0.007504
NI        0.364473    0.134821    0.208198     0.004307
AU        0.369129    0.166865    0.247849     0.007504
AU        0.408775    0.130102    0.249477     0.007504
AU        0.407672    0.169127    0.210585     0.007504
NI        0.444340    0.131410    0.209910     0.004307
AU        0.443711    0.168064    0.249957     0.007504
AU        0.480412    0.128211    0.250894     0.007504
AU        0.482826    0.167208    0.212414     0.007504
NI        0.518185    0.134861    0.207021     0.004307
AU        0.519806    0.164113    0.250634     0.007504
NI        0.558197    0.132524    0.252602     0.004307
AU        0.557312    0.166773    0.213152     0.007504
NI        0.598495    0.139548    0.212948     0.004307
AU        0.598113    0.171765    0.250662     0.007504
NI        0.636565    0.134811    0.250575     0.004307
NI        0.633853    0.174078    0.213693     0.004307
NI        0.670465    0.140363    0.213858     0.004307
NI        0.668033    0.171292    0.249703     0.004307
NI        0.706380    0.139388    0.250562     0.004307
NI        0.704835    0.173057    0.215398     0.004307
NI        0.739578    0.176223    0.251253     0.004307
NI        0.077208    0.244612    0.249727     0.004307
NI        0.111019    0.211351    0.252662     0.004307
NI        0.109198    0.248055    0.210344     0.004307
NI        0.142635    0.210959    0.213120     0.004307
NI        0.139388    0.247785    0.244188     0.004307
NI        0.172945    0.210475    0.248875     0.004307
NI        0.180296    0.246526    0.210123     0.004307
NI        0.215104    0.212972    0.210290     0.004307
AU        0.212277    0.244303    0.247566     0.007504
AU        0.249906    0.206378    0.249216     0.007504
AU        0.251668    0.246929    0.212270     0.007504
AU        0.289268    0.206938    0.210932     0.007504
AU        0.289745    0.246763    0.248745     0.007504
AU        0.328065    0.204202    0.250956     0.007504
AU        0.326502    0.245021    0.213675     0.007504
AU        0.365132    0.205157    0.210516     0.007504
AU        0.366722    0.242682    0.249689     0.007504
AU        0.405593    0.207417    0.249482     0.007504
AU        0.402921    0.242609    0.210962     0.007504
AU        0.445165    0.208262    0.211855     0.007504
AU        0.442865    0.246039    0.249588     0.007504
AU        0.481260    0.206783    0.250318     0.007504
AU        0.481712    0.246337    0.214413     0.007504
AU        0.519839    0.206412    0.212875     0.007504
AU        0.520836    0.245256    0.252088     0.007504
AU        0.556633    0.204744    0.251622     0.007504
AU        0.556861    0.245869    0.212622     0.007504
AU        0.598726    0.208442    0.212405     0.007504
AU        0.596415    0.246826    0.249362     0.007504
AU        0.634909    0.209503    0.246109     0.007504
AU        0.634086    0.249266    0.209920     0.007504
NI        0.668639    0.211715    0.211228     0.004307
AU        0.674317    0.249372    0.247508     0.007504
NI        0.707446    0.207558    0.252488     0.004307
NI        0.712268    0.246310    0.213807     0.004307
NI        0.741207    0.211365    0.215910     0.004307
NI        0.743732    0.243978    0.250553     0.004307
NI        0.777737    0.206786    0.252078     0.004307
NI        0.774895    0.252268    0.212814     0.004307
NI        0.805441    0.246563    0.250826     0.004307
NI        0.075179    0.324954    0.244008     0.004307
NI        0.101007    0.284284    0.237907     0.004307
NI        0.110195    0.322612    0.209625     0.004307
NI        0.141266    0.283715    0.215776     0.004307
NI        0.131855    0.318149    0.248411     0.004307
AU        0.176534    0.282977    0.248974     0.007504
AU        0.171468    0.321433    0.213365     0.007504
AU        0.212923    0.285025    0.212062     0.007504
AU        0.211772    0.322683    0.247700     0.007504
AU        0.251017    0.284155    0.252503     0.007504
AU        0.250798    0.322412    0.212203     0.007504
AU        0.288172    0.284095    0.212224     0.007504
AU        0.286291    0.322322    0.251512     0.007504
AU        0.326124    0.282508    0.252441     0.007504
AU        0.325757    0.322892    0.211757     0.007504
AU        0.367280    0.284822    0.212645     0.007504
AU        0.366622    0.322755    0.248283     0.007504
AU        0.403180    0.281485    0.250304     0.007504
AU        0.405522    0.324055    0.214009     0.007504
AU        0.441929    0.284621    0.214072     0.007504
AU        0.444512    0.325272    0.249995     0.007504
AU        0.481707    0.287449    0.248232     0.007504
AU        0.481430    0.322924    0.210380     0.007504
AU        0.520223    0.283826    0.211994     0.007504
AU        0.522334    0.323613    0.250267     0.007504
AU        0.559380    0.285696    0.248220     0.007504
AU        0.558858    0.323618    0.208902     0.007504
AU        0.596738    0.285782    0.211224     0.007504
AU        0.596829    0.324594    0.248625     0.007504
AU        0.635925    0.283578    0.248503     0.007504
AU        0.634499    0.323598    0.209596     0.007504
AU        0.676072    0.284202    0.207548     0.007504
AU        0.673497    0.320846    0.248582     0.007504
AU        0.712262    0.283419    0.248504     0.007504
AU        0.712726    0.323903    0.210076     0.007504
NI        0.743951    0.287242    0.210774     0.004307
NI        0.744817    0.321471    0.249020     0.004307
NI        0.777275    0.288604    0.243559     0.004307
NI        0.776431    0.320505    0.210551     0.004307
NI        0.811422    0.321745    0.244641     0.004307
NI        0.043053    0.361798    0.247859     0.004307
NI        0.078699    0.361002    0.211725     0.004307
NI        0.078341    0.395059    0.247833     0.004307
NI        0.109482    0.360884    0.246369     0.004307
NI        0.106328    0.397834    0.209212     0.004307
NI        0.141475    0.363438    0.211127     0.004307
AU        0.132420    0.404135    0.251417     0.007504
AU        0.169764    0.359975    0.251425     0.007504
AU        0.175279    0.399951    0.214384     0.007504
AU        0.212839    0.362581    0.212955     0.007504
AU        0.209562    0.397265    0.253776     0.007504
AU        0.249012    0.361640    0.254021     0.007504
AU        0.251047    0.397579    0.214348     0.007504
AU        0.287818    0.362748    0.211359     0.007504
AU        0.289631    0.400721    0.249863     0.007504
AU        0.322575    0.361562    0.250885     0.007504
AU        0.328231    0.404001    0.209772     0.007504
AU        0.364687    0.363813    0.211788     0.007504
AU        0.364082    0.400022    0.247851     0.007504
AU        0.404510    0.361945    0.250086     0.007504
AU        0.407234    0.400208    0.210340     0.007504
AU        0.443805    0.360332    0.211346     0.007504
AU        0.443404    0.400057    0.248742     0.007504
AU        0.484882    0.361564    0.247922     0.007504
AU        0.480253    0.401546    0.209923     0.007504
AU        0.520982    0.362811    0.210462     0.007504
AU        0.523485    0.400751    0.246365     0.007504
AU        0.560489    0.362286    0.249306     0.007504
AU        0.559589    0.398378    0.208867     0.007504
AU        0.598107    0.362031    0.208171     0.007504
AU        0.599354    0.398118    0.246751     0.007504
AU        0.634631    0.361409    0.249984     0.007504
AU        0.637578    0.398995    0.211192     0.007504
AU        0.673282    0.361190    0.211486     0.007504
AU        0.675787    0.400421    0.248930     0.007504
AU        0.712997    0.361109    0.247615     0.007504
AU        0.714272    0.398963    0.208235     0.007504
NI        0.746839    0.359582    0.211083     0.004307
AU        0.754762    0.398101    0.250486     0.007504
NI        0.779657    0.354693    0.249197     0.004307
NI        0.782184    0.401724    0.209887     0.004307
NI        0.808781    0.362232    0.211638     0.004307
NI        0.812304    0.401727    0.245503     0.004307
NI        0.841616    0.358533    0.246776     0.004307
NI        0.049529    0.441912    0.251045     0.004307
NI        0.082045    0.437350    0.216005     0.004307
NI        0.081458    0.480101    0.246323     0.004307
NI        0.095855    0.439341    0.259870     0.004307
NI        0.109585    0.478381    0.208029     0.004307
NI        0.138947    0.438270    0.213089     0.004307
AU        0.134988    0.473698    0.251110     0.007504
AU        0.174439    0.440134    0.250957     0.007504
AU        0.175060    0.477199    0.212664     0.007504
AU        0.213264    0.437405    0.215590     0.007504
AU        0.212306    0.480509    0.250161     0.007504
AU        0.250062    0.438069    0.251135     0.007504
AU        0.249962    0.478657    0.212243     0.007504
AU        0.289764    0.438573    0.212160     0.007504
AU        0.286891    0.475979    0.249120     0.007504
AU        0.326576    0.441610    0.250890     0.007504
AU        0.325119    0.479644    0.214222     0.007504
AU        0.367511    0.441782    0.212673     0.007504
AU        0.364879    0.476025    0.252902     0.007504
AU        0.403329    0.438601    0.249728     0.007504
AU        0.404993    0.475483    0.210530     0.007504
AU        0.443585    0.437788    0.212034     0.007504
AU        0.445977    0.476180    0.248502     0.007504
AU        0.484029    0.438328    0.250358     0.007504
AU        0.484336    0.475580    0.210559     0.007504
AU        0.522129    0.439852    0.211255     0.007504
AU        0.524693    0.478979    0.246859     0.007504
AU        0.562156    0.437466    0.248821     0.007504
AU        0.561553    0.476839    0.209363     0.007504
AU        0.602143    0.437342    0.211628     0.007504
AU        0.599179    0.478159    0.246412     0.007504
AU        0.639407    0.437912    0.249842     0.007504
AU        0.640189    0.476890    0.211722     0.007504
AU        0.677254    0.439385    0.211647     0.007504
AU        0.677127    0.479339    0.250387     0.007504
AU        0.715350    0.435234    0.247285     0.007504
AU        0.716432    0.474354    0.211768     0.007504
NI        0.747863    0.436909    0.210422     0.004307
AU        0.754860    0.478899    0.249482     0.007504
NI        0.782895    0.438222    0.242887     0.004307
NI        0.778118    0.476248    0.208199     0.004307
NI        0.814926    0.440964    0.209937     0.004307
NI        0.809080    0.479535    0.245644     0.004307
NI        0.843875    0.442532    0.245400     0.004307
NI        0.043041    0.518193    0.253567     0.004307
NI        0.075079    0.513400    0.211179     0.004307
NI        0.076641    0.551886    0.246299     0.004307
NI        0.108479    0.520616    0.244669     0.004307
NI        0.110852    0.554937    0.212635     0.004307
NI        0.139792    0.514651    0.209683     0.004307
NI        0.140245    0.556754    0.248924     0.004307
AU        0.170869    0.515454    0.250315     0.007504
AU        0.175216    0.553539    0.210962     0.007504
AU        0.212215    0.515229    0.212032     0.007504
AU        0.210440    0.553549    0.249765     0.007504
AU        0.253575    0.517438    0.250739     0.007504
AU        0.248399    0.555418    0.211413     0.007504
AU        0.290448    0.516739    0.215012     0.007504
AU        0.289648    0.556179    0.249824     0.007504
AU        0.329432    0.515805    0.251986     0.007504
AU        0.327505    0.556258    0.209708     0.007504
AU        0.367349    0.515269    0.210284     0.007504
AU        0.368738    0.553931    0.249689     0.007504
AU        0.405230    0.513779    0.247172     0.007504
AU        0.406744    0.552736    0.212701     0.007504
AU        0.445985    0.515488    0.209949     0.007504
AU        0.444844    0.553983    0.248519     0.007504
AU        0.483681    0.515206    0.249559     0.007504
AU        0.482530    0.555429    0.210358     0.007504
AU        0.523174    0.515576    0.210418     0.007504
AU        0.522372    0.552900    0.249264     0.007504
AU        0.560702    0.516041    0.248945     0.007504
AU        0.561322    0.553596    0.208381     0.007504
AU        0.602290    0.517163    0.210202     0.007504
AU        0.599425    0.554451    0.247961     0.007504
AU        0.640671    0.516427    0.248460     0.007504
AU        0.641161    0.551309    0.207480     0.007504
AU        0.680157    0.513208    0.208708     0.007504
AU        0.676440    0.555846    0.248300     0.007504
AU        0.713595    0.516386    0.250681     0.007504
AU        0.716339    0.554423    0.210013     0.007504
NI        0.753174    0.515146    0.211417     0.004307
NI        0.751159    0.554573    0.248228     0.004307
NI        0.782395    0.521174    0.246754     0.004307
NI        0.779240    0.556053    0.210599     0.004307
NI        0.809798    0.515061    0.210025     0.004307
NI        0.818404    0.551033    0.243620     0.004307
NI        0.844279    0.509971    0.242562     0.004307
NI        0.090878    0.628738    0.256853     0.004307
NI        0.106509    0.587866    0.245662     0.004307
NI        0.110965    0.624969    0.214786     0.004307
NI        0.144129    0.591580    0.210929     0.004307
NI        0.136602    0.631743    0.254201     0.004307
AU        0.172096    0.592942    0.250901     0.007504
NI        0.180199    0.629165    0.214734     0.004307
AU        0.213929    0.591628    0.211752     0.007504
AU        0.211841    0.630393    0.250635     0.007504
AU        0.252480    0.592769    0.250507     0.007504
AU        0.250379    0.631937    0.209248     0.007504
AU        0.290241    0.593415    0.210968     0.007504
AU        0.289041    0.633298    0.249664     0.007504
AU        0.326564    0.593837    0.248715     0.007504
AU        0.328771    0.634154    0.211441     0.007504
AU        0.362849    0.594028    0.210542     0.007504
AU        0.366333    0.632695    0.251750     0.007504
AU        0.406018    0.593472    0.248369     0.007504
AU        0.403645    0.631371    0.211034     0.007504
AU        0.442705    0.592344    0.209665     0.007504
AU        0.444842    0.629450    0.249081     0.007504
AU        0.486453    0.593599    0.249673     0.007504
AU        0.483182    0.629038    0.209332     0.007504
AU        0.522000    0.593026    0.206728     0.007504
AU        0.524739    0.631874    0.249639     0.007504
AU        0.561057    0.592966    0.250108     0.007504
AU        0.561786    0.631505    0.211868     0.007504
AU        0.598870    0.592521    0.210852     0.007504
AU        0.599835    0.631578    0.250026     0.007504
AU        0.635844    0.591051    0.249170     0.007504
AU        0.637527    0.630392    0.210565     0.007504
AU        0.675901    0.591477    0.211485     0.007504
AU        0.676652    0.630709    0.248021     0.007504
AU        0.716513    0.593132    0.249059     0.007504
NI        0.708873    0.629391    0.206030     0.004307
NI        0.741500    0.595001    0.206065     0.004307
NI        0.746745    0.632459    0.250129     0.004307
NI        0.785041    0.591506    0.244813     0.004307
NI        0.772949    0.630464    0.211889     0.004307
NI        0.811540    0.633592    0.249127     0.004307
NI        0.112049    0.670518    0.254873     0.004307
NI        0.142870    0.664119    0.215977     0.004307
NI        0.145959    0.702362    0.258874     0.004307
NI        0.174280    0.664724    0.255546     0.004307
NI        0.177438    0.694767    0.216958     0.004307
NI        0.214095    0.670133    0.214174     0.004307
NI        0.208635    0.702958    0.255893     0.004307
AU        0.247992    0.669879    0.249051     0.007504
NI        0.250575    0.703949    0.214180     0.004307
AU        0.290015    0.671037    0.212088     0.007504
AU        0.287782    0.710385    0.250424     0.007504
AU        0.328607    0.672190    0.252049     0.007504
AU        0.331766    0.711419    0.209407     0.007504
AU        0.368563    0.669571    0.210629     0.007504
AU        0.369066    0.711050    0.249696     0.007504
AU        0.405722    0.669446    0.250775     0.007504
AU        0.407068    0.707353    0.208390     0.007504
AU        0.442194    0.668776    0.210733     0.007504
AU        0.446119    0.707215    0.248460     0.007504
AU        0.484027    0.668770    0.247155     0.007504
AU        0.480906    0.707422    0.209849     0.007504
AU        0.519624    0.670173    0.209719     0.007504
AU        0.519088    0.709746    0.245902     0.007504
AU        0.561113    0.669399    0.249245     0.007504
AU        0.560809    0.707492    0.210033     0.007504
AU        0.601195    0.670431    0.213765     0.007504
AU        0.599913    0.708396    0.250566     0.007504
AU        0.640519    0.670553    0.251498     0.007504
NI        0.635981    0.706464    0.217219     0.004307
NI        0.675219    0.664950    0.210823     0.004307
NI        0.675763    0.709575    0.256808     0.004307
NI        0.709749    0.669347    0.252638     0.004307
NI        0.703491    0.700306    0.217528     0.004307
NI        0.738639    0.665604    0.213435     0.004307
NI        0.741184    0.704302    0.255054     0.004307
NI        0.777792    0.666517    0.249134     0.004307
NI        0.176988    0.740477    0.258722     0.004307
NI        0.214019    0.734706    0.221107     0.004307
NI        0.213843    0.772082    0.254545     0.004307
NI        0.248303    0.741177    0.255477     0.004307
NI        0.254986    0.770407    0.213832     0.004307
NI        0.293712    0.740167    0.209699     0.004307
NI        0.294301    0.774763    0.247461     0.004307
NI        0.330502    0.742647    0.248502     0.004307
NI        0.334706    0.771070    0.211844     0.004307
NI        0.371549    0.742211    0.211955     0.004307
NI        0.367090    0.775392    0.243981     0.004307
AU        0.408416    0.746005    0.249277     0.007504
NI        0.410085    0.771657    0.207908     0.004307
NI        0.446320    0.741462    0.207308     0.004307
NI        0.446045    0.776955    0.249423     0.004307
AU        0.482689    0.744833    0.247938     0.007504
NI        0.485114    0.776756    0.210485     0.004307
NI        0.520204    0.744178    0.210920     0.004307
NI        0.522086    0.776441    0.243197     0.004307
NI        0.558855    0.743277    0.248980     0.004307
NI        0.557607    0.775091    0.212032     0.004307
NI        0.598674    0.744624    0.215836     0.004307
NI        0.590652    0.779833    0.245701     0.004307
NI        0.632069    0.748810    0.253449     0.004307
NI        0.633898    0.775983    0.216109     0.004307
NI        0.669566    0.740876    0.225485     0.004307
NI        0.671625    0.776315    0.260775     0.004307
NI        0.709457    0.740348    0.257484     0.004307
NI        0.253922    0.799461    0.254939     0.004307
NI        0.334207    0.808874    0.244182     0.004307
NI        0.375439    0.805038    0.211014     0.004307
NI        0.372087    0.837037    0.246812     0.004307
NI        0.407187    0.801601    0.245868     0.004307
NI        0.446127    0.804153    0.210982     0.004307
NI        0.444537    0.837192    0.244561     0.004307
NI        0.481890    0.807045    0.247873     0.004307
NI        0.516669    0.811739    0.211906     0.004307
NI        0.518007    0.844016    0.247213     0.004307
NI        0.554073    0.812649    0.244974     0.004307
NI        0.632128    0.804564    0.254630     0.004307
NI        0.283078    0.043641    0.324028     0.004307
NI        0.325185    0.047315    0.283449     0.004307
NI        0.361779    0.044122    0.317577     0.004307
NI        0.403549    0.039288    0.281930     0.004307
NI        0.443348    0.027340    0.326625     0.004307
NI        0.485667    0.038997    0.280950     0.004307
NI        0.527281    0.040009    0.320393     0.004307
NI        0.556217    0.038807    0.281535     0.004307
NI        0.602319    0.043334    0.321011     0.004307
NI        0.178263    0.098681    0.302251     0.004307
NI        0.206702    0.101272    0.337093     0.004307
NI        0.240860    0.065517    0.334417     0.004307
NI        0.239885    0.097148    0.294815     0.004307
NI        0.283415    0.072283    0.286946     0.004307
NI        0.275224    0.098491    0.329402     0.004307
NI        0.317655    0.073818    0.321091     0.004307
NI        0.325917    0.100388    0.281879     0.004307
NI        0.367084    0.068734    0.277618     0.004307
AU        0.365863    0.091238    0.323489     0.007504
NI        0.407382    0.060065    0.324598     0.004307
NI        0.405982    0.093227    0.285382     0.004307
NI        0.443602    0.061085    0.290811     0.004307
AU        0.444444    0.092750    0.327952     0.007504
NI        0.478991    0.056190    0.326706     0.004307
NI        0.480805    0.091081    0.293424     0.004307
NI        0.520987    0.071874    0.280857     0.004307
AU        0.519435    0.087456    0.328535     0.007504
NI        0.565581    0.069877    0.317318     0.004307
NI        0.561365    0.099671    0.282972     0.004307
NI        0.600653    0.074926    0.284033     0.004307
NI        0.603331    0.096847    0.325905     0.004307
NI        0.645585    0.063325    0.333708     0.004307
NI        0.641119    0.095712    0.296751     0.004307
NI        0.676992    0.101635    0.332609     0.004307
NI        0.709895    0.109885    0.290230     0.004307
NI        0.111639    0.171308    0.292057     0.004307
NI        0.143987    0.136175    0.295878     0.004307
NI        0.138821    0.166637    0.332872     0.004307
NI        0.172145    0.132855    0.335658     0.004307
NI        0.174949    0.169415    0.291892     0.004307
NI        0.204789    0.132535    0.296101     0.004307
AU        0.208572    0.167728    0.332820     0.007504
NI        0.241445    0.133482    0.332349     0.004307
AU        0.243194    0.165154    0.285338     0.007504
AU        0.283042    0.127293    0.288241     0.007504
AU        0.285622    0.165199    0.324129     0.007504
AU        0.322932    0.125225    0.325571     0.007504
AU        0.330149    0.164087    0.286704     0.007504
AU        0.367946    0.126625    0.287831     0.007504
AU        0.363015    0.165100    0.327355     0.007504
AU        0.405661    0.129431    0.327004     0.007504
AU        0.403388    0.165810    0.288345     0.007504
AU        0.444345    0.130528    0.289434     0.007504
AU        0.443047    0.167738    0.329981     0.007504
AU        0.481076    0.131158    0.328381     0.007504
AU        0.483296    0.165288    0.289609     0.007504
AU        0.518757    0.125935    0.288969     0.007504
AU        0.521677    0.164856    0.329225     0.007504
AU        0.558653    0.126599    0.326387     0.007504
AU        0.559575    0.164976    0.289761     0.007504
AU        0.602235    0.129065    0.286782     0.007504
AU        0.600630    0.166470    0.324282     0.007504
NI        0.638792    0.131818    0.329136     0.004307
AU        0.635829    0.169415    0.287494     0.007504
NI        0.671586    0.135915    0.289014     0.004307
AU        0.674962    0.170608    0.326208     0.007504
NI        0.713117    0.139870    0.328954     0.004307
NI        0.703692    0.173403    0.286585     0.004307
NI        0.738872    0.145958    0.290110     0.004307
NI        0.754098    0.163665    0.331764     0.004307
NI        0.777686    0.174976    0.289798     0.004307
NI        0.074026    0.236099    0.334235     0.004307
NI        0.108197    0.201412    0.328280     0.004307
NI        0.100563    0.233785    0.293311     0.004307
NI        0.140549    0.207231    0.287404     0.004307
NI        0.134468    0.247144    0.323296     0.004307
AU        0.170435    0.205635    0.327510     0.007504
AU        0.173075    0.245632    0.288898     0.007504
AU        0.208008    0.207287    0.286632     0.007504
AU        0.209743    0.244512    0.327493     0.007504
AU        0.248773    0.204483    0.326413     0.007504
AU        0.248644    0.242930    0.287125     0.007504
AU        0.286871    0.205510    0.288388     0.007504
AU        0.287554    0.243060    0.326381     0.007504
AU        0.327268    0.203539    0.324223     0.007504
AU        0.328666    0.243970    0.289216     0.007504
AU        0.366184    0.202885    0.287448     0.007504
AU        0.364627    0.244025    0.327081     0.007504
AU        0.404460    0.204711    0.328537     0.007504
AU        0.406844    0.245014    0.289972     0.007504
AU        0.443631    0.205665    0.288614     0.007504
AU        0.445721    0.243991    0.327543     0.007504
AU        0.481635    0.205978    0.331432     0.007504
AU        0.482740    0.247668    0.287426     0.007504
AU        0.519955    0.205161    0.289505     0.007504
AU        0.519194    0.245504    0.326082     0.007504
AU        0.557717    0.207525    0.329411     0.007504
AU        0.559344    0.245321    0.288363     0.007504
AU        0.597093    0.206825    0.292757     0.007504
AU        0.598211    0.244324    0.327226     0.007504
AU        0.634964    0.205356    0.326904     0.007504
AU        0.635617    0.247650    0.287462     0.007504
AU        0.671685    0.209979    0.286119     0.007504
AU        0.678648    0.244688    0.328910     0.007504
AU        0.716093    0.204532    0.330661     0.007504
AU        0.712643    0.246126    0.288095     0.007504
NI        0.743553    0.207798    0.288653     0.004307
NI        0.749700    0.242615    0.327929     0.004307
NI        0.776017    0.205426    0.327506     0.004307
NI        0.777086    0.238919    0.289244     0.004307
NI        0.808671    0.239916    0.325402     0.004307
NI        0.050722    0.277142    0.326988     0.004307
NI        0.047675    0.322368    0.288185     0.004307
NI        0.076447    0.284184    0.282046     0.004307
NI        0.077732    0.315724    0.321262     0.004307
NI        0.098084    0.276595    0.324867     0.004307
NI        0.100934    0.324232    0.282855     0.004307
AU        0.129709    0.280553    0.281496     0.007504
AU        0.128639    0.317010    0.325939     0.007504
AU        0.169831    0.282429    0.327040     0.007504
AU        0.166404    0.320697    0.287217     0.007504
AU        0.211214    0.284530    0.289237     0.007504
AU        0.209296    0.324468    0.330126     0.007504
AU        0.247317    0.283100    0.327053     0.007504
AU        0.250108    0.322732    0.290540     0.007504
AU        0.287948    0.282175    0.289581     0.007504
AU        0.287789    0.321246    0.329381     0.007504
AU        0.326429    0.281576    0.327354     0.007504
AU        0.329142    0.322586    0.288546     0.007504
AU        0.363869    0.280898    0.290125     0.007504
AU        0.366406    0.322899    0.326557     0.007504
AU        0.405000    0.282635    0.325227     0.007504
AU        0.405111    0.322794    0.288047     0.007504
AU        0.443555    0.285542    0.287789     0.007504
AU        0.443845    0.324392    0.324671     0.007504
AU        0.483297    0.284932    0.323693     0.007504
AU        0.484939    0.326023    0.289645     0.007504
AU        0.521619    0.285429    0.289320     0.007504
AU        0.523173    0.322894    0.329469     0.007504
AU        0.558848    0.282916    0.329657     0.007504
AU        0.561405    0.322926    0.288328     0.007504
AU        0.598812    0.285528    0.288909     0.007504
AU        0.598051    0.321422    0.326415     0.007504
AU        0.634019    0.281466    0.327468     0.007504
AU        0.639371    0.322682    0.289631     0.007504
AU        0.674012    0.283103    0.290471     0.007504
AU        0.673778    0.322234    0.328706     0.007504
AU        0.714704    0.281982    0.327547     0.007504
AU        0.712636    0.321615    0.286219     0.007504
AU        0.751064    0.280684    0.286412     0.007504
AU        0.752611    0.320534    0.323215     0.007504
NI        0.779739    0.278288    0.326871     0.004307
NI        0.783938    0.321315    0.283332     0.004307
NI        0.801838    0.278440    0.286041     0.004307
NI        0.808066    0.316249    0.319775     0.004307
NI        0.838433    0.283332    0.319712     0.004307
NI        0.837844    0.315164    0.283002     0.004307
NI        0.047692    0.355621    0.323749     0.004307
NI        0.042327    0.395598    0.282378     0.004307
NI        0.074497    0.361979    0.282512     0.004307
NI        0.062149    0.399019    0.326955     0.004307
AU        0.092260    0.361482    0.328186     0.007504
NI        0.097541    0.400602    0.291874     0.004307
AU        0.133644    0.362202    0.289401     0.007504
AU        0.136428    0.402735    0.325342     0.007504
AU        0.172836    0.361194    0.324912     0.007504
AU        0.173862    0.400773    0.287852     0.007504
AU        0.211566    0.360906    0.289648     0.007504
AU        0.210152    0.399601    0.329955     0.007504
AU        0.250194    0.359641    0.331223     0.007504
AU        0.250873    0.400274    0.290345     0.007504
AU        0.288687    0.360631    0.290670     0.007504
AU        0.290417    0.398452    0.326302     0.007504
AU        0.327408    0.358338    0.326738     0.007504
AU        0.329212    0.397712    0.289290     0.007504
AU        0.366925    0.362065    0.288272     0.007504
AU        0.366720    0.401062    0.327578     0.007504
AU        0.406483    0.360940    0.324783     0.007504
AU        0.407380    0.399999    0.285429     0.007504
AU        0.446859    0.362157    0.286541     0.007504
AU        0.443945    0.399171    0.326268     0.007504
AU        0.483954    0.362628    0.326737     0.007504
AU        0.483773    0.399890    0.287322     0.007504
AU        0.522385    0.362770    0.287570     0.007504
AU        0.521670    0.400350    0.327645     0.007504
AU        0.561841    0.362532    0.329645     0.007504
AU        0.561602    0.398312    0.290389     0.007504
AU        0.598867    0.359144    0.290268     0.007504
AU        0.598641    0.401592    0.326072     0.007504
AU        0.636443    0.361947    0.326215     0.007504
AU        0.637968    0.401378    0.292758     0.007504
AU        0.675296    0.359289    0.288007     0.007504
AU        0.677132    0.399038    0.329473     0.007504
AU        0.714029    0.360202    0.328675     0.007504
AU        0.714229    0.400344    0.285372     0.007504
AU        0.747740    0.360752    0.289898     0.007504
AU        0.752631    0.401565    0.325434     0.007504
AU        0.786961    0.359901    0.327449     0.007504
NI        0.790371    0.395119    0.288242     0.004307
NI        0.812901    0.356902    0.282813     0.004307
NI        0.824408    0.393965    0.327594     0.004307
NI        0.838636    0.348350    0.321882     0.004307
NI        0.838998    0.396318    0.283069     0.004307
NI        0.031962    0.433414    0.330130     0.004307
NI        0.048270    0.480136    0.283972     0.004307
NI        0.063513    0.437828    0.294399     0.004307
NI        0.062053    0.475223    0.329793     0.004307
AU        0.098785    0.439106    0.327939     0.007504
NI        0.096582    0.476322    0.291933     0.004307
AU        0.136135    0.439512    0.288679     0.007504
AU        0.135204    0.478246    0.326292     0.007504
AU        0.176193    0.440550    0.328549     0.007504
AU        0.175545    0.478234    0.291395     0.007504
AU        0.211198    0.439472    0.287294     0.007504
AU        0.212845    0.478630    0.327161     0.007504
AU        0.254500    0.437961    0.328000     0.007504
AU        0.250647    0.476920    0.289328     0.007504
AU        0.291105    0.437520    0.290062     0.007504
AU        0.288185    0.476656    0.327038     0.007504
AU        0.328210    0.437111    0.326855     0.007504
AU        0.326664    0.476982    0.289943     0.007504
AU        0.367092    0.438704    0.289433     0.007504
AU        0.368843    0.479151    0.325339     0.007504
AU        0.406699    0.438658    0.325232     0.007504
AU        0.406941    0.476359    0.287024     0.007504
AU        0.445972    0.437586    0.287552     0.007504
AU        0.446043    0.476751    0.324799     0.007504
AU        0.484998    0.437360    0.326474     0.007504
AU        0.484755    0.475554    0.283989     0.007504
AU        0.524505    0.436735    0.288334     0.007504
AU        0.521300    0.477744    0.329515     0.007504
AU        0.560981    0.439317    0.328782     0.007504
AU        0.559721    0.474925    0.287862     0.007504
AU        0.598389    0.437381    0.284764     0.007504
AU        0.598734    0.478246    0.325483     0.007504
AU        0.637477    0.442336    0.327462     0.007504
AU        0.636739    0.477855    0.286385     0.007504
AU        0.676552    0.437590    0.289141     0.007504
AU        0.680708    0.476693    0.323093     0.007504
AU        0.716247    0.439819    0.324354     0.007504
AU        0.715574    0.476759    0.285569     0.007504
AU        0.755673    0.438444    0.285159     0.007504
AU        0.755440    0.479938    0.326972     0.007504
AU        0.796151    0.436719    0.324762     0.007504
NI        0.790911    0.478277    0.291272     0.004307
NI        0.815589    0.436189    0.278529     0.004307
NI        0.823601    0.481171    0.324270     0.004307
NI        0.844411    0.437629    0.318954     0.004307
NI        0.840922    0.477215    0.280791     0.004307
NI        0.050209    0.521370    0.321542     0.004307
NI        0.050888    0.559025    0.284299     0.004307
NI        0.080473    0.520297    0.284357     0.004307
NI        0.082085    0.559970    0.320292     0.004307
AU        0.095118    0.511888    0.329932     0.007504
NI        0.108501    0.557282    0.282111     0.004307
AU        0.135636    0.515924    0.287441     0.007504
AU        0.132971    0.554582    0.327112     0.007504
AU        0.173465    0.515902    0.326245     0.007504
AU        0.171411    0.555106    0.288014     0.007504
AU        0.212179    0.517296    0.289939     0.007504
AU        0.210735    0.555562    0.327305     0.007504
AU        0.251615    0.517415    0.326371     0.007504
AU        0.248498    0.555305    0.287989     0.007504
AU        0.286920    0.514966    0.289930     0.007504
AU        0.289212    0.556886    0.323835     0.007504
AU        0.329566    0.517426    0.325228     0.007504
AU        0.328838    0.555886    0.286460     0.007504
AU        0.366475    0.516850    0.289375     0.007504
AU        0.366520    0.554724    0.328516     0.007504
AU        0.409909    0.517603    0.326005     0.007504
AU        0.405916    0.552504    0.286074     0.007504
AU        0.446467    0.514543    0.286075     0.007504
AU        0.446115    0.556892    0.326159     0.007504
AU        0.482938    0.516726    0.324027     0.007504
AU        0.485752    0.555538    0.285232     0.007504
AU        0.522570    0.513296    0.291351     0.007504
AU        0.522455    0.555992    0.324912     0.007504
AU        0.560645    0.516980    0.325003     0.007504
AU        0.561351    0.554521    0.288255     0.007504
AU        0.599766    0.515379    0.286272     0.007504
AU        0.600421    0.556198    0.324134     0.007504
AU        0.638399    0.515332    0.327814     0.007504
AU        0.638329    0.555679    0.290551     0.007504
AU        0.672735    0.517734    0.288155     0.007504
AU        0.676200    0.549648    0.329362     0.007504
AU        0.715902    0.516501    0.325458     0.007504
AU        0.717682    0.554334    0.290239     0.007504
AU        0.754124    0.516110    0.286196     0.007504
AU        0.758514    0.558550    0.326285     0.007504
AU        0.792904    0.520016    0.325298     0.007504
NI        0.788073    0.556554    0.281458     0.004307
NI        0.816351    0.518746    0.278652     0.004307
NI        0.810555    0.564878    0.321428     0.004307
NI        0.839599    0.526709    0.319402     0.004307
NI        0.840433    0.559743    0.285192     0.004307
NI        0.050804    0.595028    0.323875     0.004307
NI        0.082452    0.594928    0.287934     0.004307
NI        0.067924    0.640122    0.340679     0.004307
NI        0.099295    0.602450    0.331972     0.004307
NI        0.102730    0.640327    0.302553     0.004307
AU        0.133469    0.599446    0.291023     0.007504
NI        0.139323    0.632935    0.333968     0.004307
AU        0.171485    0.591718    0.326839     0.007504
AU        0.174309    0.631799    0.291798     0.007504
AU        0.211262    0.592796    0.287372     0.007504
AU        0.212438    0.631650    0.329816     0.007504
AU        0.251461    0.593728    0.324796     0.007504
AU        0.251931    0.631656    0.288312     0.007504
AU        0.289932    0.595233    0.288334     0.007504
AU        0.289475    0.633004    0.328312     0.007504
AU        0.328059    0.594082    0.326544     0.007504
AU        0.328752    0.632161    0.287259     0.007504
AU        0.366492    0.592537    0.288888     0.007504
AU        0.368525    0.632465    0.326385     0.007504
AU        0.404443    0.590606    0.325835     0.007504
AU        0.404721    0.629317    0.290438     0.007504
AU        0.445251    0.591335    0.285372     0.007504
AU        0.444429    0.631099    0.322667     0.007504
AU        0.484692    0.594624    0.326832     0.007504
AU        0.483834    0.631167    0.286285     0.007504
AU        0.523086    0.594318    0.288066     0.007504
AU        0.521201    0.634327    0.324783     0.007504
AU        0.562043    0.595573    0.325194     0.007504
AU        0.560564    0.632672    0.287606     0.007504
AU        0.598954    0.595173    0.288961     0.007504
AU        0.599773    0.633802    0.325657     0.007504
AU        0.638140    0.594895    0.326440     0.007504
AU        0.639239    0.629603    0.286327     0.007504
AU        0.682087    0.593850    0.290601     0.007504
AU        0.676766    0.632479    0.329093     0.007504
AU        0.717516    0.593644    0.328047     0.007504
AU        0.715763    0.631104    0.288825     0.007504
AU        0.753085    0.592861    0.286144     0.007504
NI        0.747951    0.632700    0.327069     0.004307
NI        0.784476    0.600826    0.327414     0.004307
NI        0.779976    0.634161    0.289292     0.004307
NI        0.812608    0.600744    0.284425     0.004307
NI        0.813910    0.639674    0.327385     0.004307
NI        0.839048    0.599366    0.328159     0.004307
NI        0.105179    0.672359    0.336058     0.004307
NI        0.109236    0.701779    0.295935     0.004307
NI        0.140482    0.668501    0.296017     0.004307
NI        0.138304    0.702033    0.334148     0.004307
AU        0.175798    0.669029    0.331948     0.007504
NI        0.177239    0.703680    0.294470     0.004307
AU        0.210069    0.670173    0.292267     0.007504
AU        0.213738    0.708865    0.330509     0.007504
AU        0.250120    0.668566    0.327326     0.007504
AU        0.251175    0.707254    0.293040     0.007504
AU        0.287909    0.671943    0.286325     0.007504
AU        0.292062    0.712223    0.327790     0.007504
AU        0.327319    0.672018    0.326258     0.007504
AU        0.327015    0.712695    0.285927     0.007504
AU        0.368645    0.671666    0.288880     0.007504
AU        0.366197    0.709794    0.324009     0.007504
AU        0.404942    0.671317    0.324946     0.007504
AU        0.408569    0.709225    0.287481     0.007504
AU        0.445796    0.667762    0.285198     0.007504
AU        0.442982    0.711286    0.325930     0.007504
AU        0.483889    0.671610    0.324326     0.007504
AU        0.484384    0.708298    0.285418     0.007504
AU        0.523044    0.671064    0.285312     0.007504
AU        0.521986    0.710501    0.324886     0.007504
AU        0.561419    0.672967    0.324990     0.007504
AU        0.560916    0.712543    0.287159     0.007504
AU        0.599049    0.671583    0.286644     0.007504
AU        0.600487    0.713461    0.328967     0.007504
AU        0.636237    0.669779    0.327668     0.007504
AU        0.635585    0.709615    0.291152     0.007504
AU        0.677447    0.670908    0.289243     0.007504
AU        0.675844    0.707240    0.331560     0.007504
AU        0.716500    0.671863    0.327604     0.007504
NI        0.709534    0.708771    0.293143     0.004307
NI        0.746637    0.667645    0.288128     0.004307
NI        0.747723    0.709181    0.330301     0.004307
NI        0.780436    0.670726    0.326977     0.004307
NI        0.780831    0.698550    0.291014     0.004307
NI        0.142191    0.732382    0.292782     0.004307
NI        0.170681    0.741473    0.333932     0.004307
NI        0.182936    0.771569    0.293838     0.004307
NI        0.212895    0.737569    0.288817     0.004307
NI        0.210827    0.769265    0.332701     0.004307
NI        0.250246    0.744910    0.328117     0.004307
NI        0.242662    0.775173    0.292539     0.004307
AU        0.285144    0.749922    0.287923     0.007504
NI        0.283918    0.777572    0.327728     0.004307
AU        0.327501    0.747178    0.326228     0.007504
NI        0.327772    0.779532    0.285942     0.004307
AU        0.368772    0.749714    0.287514     0.007504
AU        0.368319    0.786607    0.326773     0.007504
AU        0.406877    0.750161    0.326705     0.007504
NI        0.403589    0.782368    0.290209     0.004307
AU        0.446050    0.745960    0.287231     0.007504
AU        0.444155    0.785971    0.326155     0.007504
AU        0.480049    0.748893    0.325282     0.007504
NI        0.481022    0.780590    0.286230     0.004307
AU        0.519361    0.746417    0.285309     0.007504
AU        0.521394    0.783023    0.321943     0.007504
AU        0.561028    0.752437    0.325451     0.007504
NI        0.558848    0.779952    0.279309     0.004307
AU        0.597656    0.753301    0.289613     0.007504
NI        0.602972    0.783429    0.333951     0.004307
NI        0.639372    0.748108    0.326771     0.004307
NI        0.639117    0.783996    0.296180     0.004307
NI        0.674351    0.742321    0.293614     0.004307
NI        0.676439    0.774256    0.331826     0.004307
NI        0.711325    0.742988    0.330000     0.004307
NI        0.707290    0.774895    0.293904     0.004307
NI        0.742702    0.742143    0.293649     0.004307
NI        0.244070    0.806040    0.329375     0.004307
NI        0.288216    0.805292    0.286235     0.004307
NI        0.286568    0.835786    0.323512     0.004307
NI        0.320253    0.805406    0.323332     0.004307
NI        0.326501    0.834851    0.283814     0.004307
NI        0.365458    0.805900    0.281706     0.004307
NI        0.358899    0.834958    0.322028     0.004307
NI        0.405720    0.819299    0.322425     0.004307
NI        0.407279    0.840779    0.279029     0.004307
NI        0.442079    0.810165    0.283544     0.004307
NI        0.447155    0.846525    0.318362     0.004307
NI        0.484644    0.813638    0.324152     0.004307
NI        0.479648    0.837773    0.283246     0.004307
NI        0.520930    0.807710    0.278955     0.004307
NI        0.518804    0.840026    0.310297     0.004307
NI        0.559509    0.812238    0.320279     0.004307
NI        0.558304    0.837219    0.283565     0.004307
NI        0.597513    0.804901    0.288528     0.004307
NI        0.601077    0.832195    0.328212     0.004307
NI        0.643138    0.811521    0.334403     0.004307
NI        0.244443    0.037437    0.372202     0.004307
NI        0.275632    0.038478    0.404946     0.004307
NI        0.320287    0.041651    0.356800     0.004307
NI        0.363174    0.038255    0.405037     0.004307
NI        0.404419    0.011398    0.403417     0.004307
NI        0.402496    0.032539    0.363790     0.004307
NI        0.441052    0.001695    0.367582     0.004307
NI        0.445418    0.032451    0.401392     0.004307
NI        0.482631    0.000769    0.403129     0.004307
NI        0.479873    0.030396    0.368101     0.004307
NI        0.522354    0.025713    0.404665     0.004307
NI        0.568079    0.043592    0.359649     0.004307
NI        0.601552    0.036699    0.406095     0.004307
NI        0.636794    0.034545    0.373590     0.004307
NI        0.140762    0.102921    0.412228     0.004307
NI        0.179011    0.071698    0.412581     0.004307
NI        0.176102    0.103392    0.376177     0.004307
NI        0.209106    0.071182    0.375785     0.004307
NI        0.212876    0.104668    0.409432     0.004307
NI        0.245841    0.074888    0.405919     0.004307
NI        0.245619    0.101798    0.367171     0.004307
NI        0.282306    0.066995    0.363564     0.004307
NI        0.284668    0.094495    0.402649     0.004307
NI        0.319115    0.060449    0.403970     0.004307
AU        0.325798    0.090035    0.366204     0.007504
NI        0.364725    0.058067    0.361171     0.004307
AU        0.365416    0.086164    0.404627     0.007504
NI        0.407542    0.056330    0.403393     0.004307
AU        0.404544    0.091078    0.367489     0.007504
NI        0.441741    0.059147    0.364889     0.004307
AU        0.444346    0.089687    0.406982     0.007504
NI        0.488189    0.059675    0.403473     0.004307
AU        0.480734    0.093618    0.366025     0.007504
NI        0.521463    0.054755    0.366304     0.004307
AU        0.522031    0.089989    0.404572     0.007504
NI        0.558679    0.056245    0.403499     0.004307
AU        0.559496    0.089365    0.365003     0.007504
NI        0.607390    0.068952    0.362832     0.004307
NI        0.596494    0.089183    0.404129     0.004307
NI        0.640871    0.068918    0.403626     0.004307
NI        0.643307    0.101136    0.364782     0.004307
NI        0.676300    0.067928    0.373935     0.004307
NI        0.677405    0.100341    0.406350     0.004307
NI        0.709427    0.065347    0.409043     0.004307
NI        0.709136    0.099672    0.372413     0.004307
NI        0.742840    0.100778    0.411763     0.004307
NI        0.076409    0.172899    0.417031     0.004307
NI        0.107371    0.137106    0.412518     0.004307
NI        0.105833    0.169237    0.370723     0.004307
NI        0.141089    0.134880    0.375306     0.004307
NI        0.143474    0.169515    0.406843     0.004307
NI        0.176326    0.137461    0.407266     0.004307
NI        0.173145    0.167617    0.369155     0.004307
NI        0.210853    0.135740    0.370998     0.004307
AU        0.210002    0.172082    0.404911     0.007504
AU        0.248997    0.133504    0.406810     0.007504
AU        0.249411    0.168431    0.367292     0.007504
AU        0.290265    0.129271    0.364974     0.007504
AU        0.289700    0.166905    0.405756     0.007504
AU        0.324118    0.125341    0.405038     0.007504
AU        0.324908    0.167935    0.362864     0.007504
AU        0.361242    0.127605    0.366578     0.007504
AU        0.363121    0.162907    0.403529     0.007504
AU        0.404688    0.127082    0.406923     0.007504
AU        0.405071    0.162215    0.369416     0.007504
AU        0.443309    0.127935    0.368182     0.007504
AU        0.442469    0.166095    0.405054     0.007504
AU        0.482813    0.127531    0.405992     0.007504
AU        0.481323    0.166262    0.365849     0.007504
AU        0.520313    0.128031    0.366452     0.007504
AU        0.521909    0.165129    0.403411     0.007504
AU        0.560920    0.128795    0.403982     0.007504
AU        0.560566    0.165802    0.365489     0.007504
AU        0.600640    0.128042    0.365930     0.007504
AU        0.597528    0.170174    0.406949     0.007504
AU        0.636379    0.129301    0.405739     0.007504
AU        0.633596    0.167706    0.365545     0.007504
NI        0.676403    0.134318    0.366697     0.004307
AU        0.674152    0.168080    0.405065     0.007504
NI        0.709827    0.133482    0.407935     0.004307
NI        0.711621    0.166715    0.368382     0.004307
NI        0.744050    0.133845    0.371857     0.004307
NI        0.746068    0.163115    0.411793     0.004307
NI        0.780216    0.130258    0.412209     0.004307
NI        0.779761    0.161218    0.373339     0.004307
NI        0.811743    0.166345    0.407169     0.004307
NI        0.043539    0.238622    0.369889     0.004307
NI        0.076085    0.203971    0.370102     0.004307
NI        0.079323    0.239065    0.402988     0.004307
NI        0.111427    0.205121    0.403491     0.004307
NI        0.110505    0.235265    0.364982     0.004307
NI        0.140584    0.199909    0.366880     0.004307
AU        0.133707    0.245943    0.408019     0.007504
AU        0.171928    0.207613    0.405413     0.007504
AU        0.167674    0.242481    0.365606     0.007504
AU        0.207248    0.207475    0.366211     0.007504
AU        0.210738    0.244285    0.404377     0.007504
AU        0.250192    0.205629    0.405518     0.007504
AU        0.247993    0.242958    0.366902     0.007504
AU        0.289635    0.203138    0.363578     0.007504
AU        0.290312    0.242628    0.403828     0.007504
AU        0.325679    0.203933    0.402466     0.007504
AU        0.327684    0.245861    0.364820     0.007504
AU        0.363345    0.205692    0.365569     0.007504
AU        0.364974    0.246576    0.402190     0.007504
AU        0.403108    0.204860    0.404101     0.007504
AU        0.405671    0.244970    0.362854     0.007504
AU        0.442819    0.204217    0.366168     0.007504
AU        0.442612    0.244718    0.401672     0.007504
AU        0.481990    0.206128    0.404396     0.007504
AU        0.483090    0.242919    0.367093     0.007504
AU        0.520577    0.205712    0.366907     0.007504
AU        0.520544    0.244489    0.403895     0.007504
AU        0.557283    0.206998    0.405075     0.007504
AU        0.559324    0.244841    0.366683     0.007504
AU        0.597419    0.206624    0.366352     0.007504
AU        0.600039    0.246220    0.406379     0.007504
AU        0.634596    0.207913    0.404821     0.007504
AU        0.635125    0.245272    0.366178     0.007504
AU        0.675279    0.206345    0.366034     0.007504
AU        0.673972    0.243248    0.405795     0.007504
AU        0.715651    0.204076    0.405392     0.007504
AU        0.715537    0.242471    0.365508     0.007504
NI        0.750375    0.199775    0.367713     0.004307
AU        0.757186    0.241102    0.408390     0.007504
NI        0.778334    0.198335    0.407565     0.004307
NI        0.781287    0.238561    0.362878     0.004307
NI        0.803783    0.199665    0.368288     0.004307
NI        0.809756    0.236139    0.402245     0.004307
NI        0.838210    0.229607    0.365907     0.004307
NI        0.049236    0.274676    0.404862     0.004307
NI        0.049428    0.313845    0.361224     0.004307
NI        0.080402    0.273955    0.367068     0.004307
NI        0.062182    0.319595    0.406600     0.004307
NI        0.096955    0.286751    0.408965     0.004307
AU        0.093516    0.322168    0.368215     0.007504
AU        0.130524    0.282528    0.367810     0.007504
AU        0.134431    0.325423    0.405570     0.007504
AU        0.170925    0.282267    0.405265     0.007504
AU        0.170107    0.321112    0.365149     0.007504
AU        0.207081    0.284402    0.365654     0.007504
AU        0.210190    0.320467    0.405360     0.007504
AU        0.249816    0.282368    0.404032     0.007504
AU        0.247814    0.320902    0.367438     0.007504
AU        0.287709    0.281424    0.364896     0.007504
AU        0.288641    0.319305    0.405491     0.007504
AU        0.328284    0.282285    0.403411     0.007504
AU        0.326962    0.322287    0.365639     0.007504
AU        0.367716    0.285676    0.366129     0.007504
AU        0.367532    0.322314    0.405125     0.007504
AU        0.404630    0.285634    0.405414     0.007504
AU        0.406767    0.323765    0.365122     0.007504
AU        0.443848    0.284425    0.365124     0.007504
AU        0.445942    0.323455    0.403726     0.007504
AU        0.479920    0.282593    0.404138     0.007504
AU        0.483679    0.319788    0.366202     0.007504
AU        0.520712    0.286267    0.366972     0.007504
AU        0.522147    0.321647    0.403915     0.007504
AU        0.562699    0.285414    0.403977     0.007504
AU        0.561179    0.324123    0.366265     0.007504
AU        0.599275    0.282911    0.367889     0.007504
AU        0.601213    0.320385    0.404902     0.007504
AU        0.639664    0.284142    0.405408     0.007504
AU        0.637908    0.322408    0.366339     0.007504
AU        0.677861    0.280747    0.368676     0.007504
AU        0.677752    0.321620    0.402619     0.007504
AU        0.715687    0.281655    0.405398     0.007504
AU        0.715825    0.320678    0.363790     0.007504
AU        0.755400    0.282259    0.367058     0.007504
AU        0.753047    0.322312    0.403413     0.007504
NI        0.788373    0.284006    0.405792     0.004307
AU        0.791604    0.318064    0.365753     0.007504
NI        0.814897    0.272609    0.361371     0.004307
NI        0.825165    0.322786    0.405305     0.004307
NI        0.842173    0.271263    0.400098     0.004307
NI        0.839113    0.311380    0.361851     0.004307
NI        0.008427    0.399675    0.405687     0.004307
NI        0.038235    0.362421    0.409565     0.004307
NI        0.034136    0.402401    0.367013     0.004307
NI        0.060578    0.363205    0.368174     0.004307
NI        0.062312    0.403458    0.401794     0.004307
AU        0.091657    0.361723    0.406129     0.007504
AU        0.095289    0.400975    0.366072     0.007504
AU        0.132186    0.361173    0.363049     0.007504
AU        0.135002    0.398815    0.404912     0.007504
AU        0.171612    0.361837    0.404785     0.007504
AU        0.172392    0.398535    0.367330     0.007504
AU        0.209479    0.360625    0.366859     0.007504
AU        0.211697    0.399542    0.405535     0.007504
AU        0.247425    0.361172    0.404897     0.007504
AU        0.249193    0.398508    0.367121     0.007504
AU        0.285705    0.359757    0.367083     0.007504
AU        0.290343    0.400027    0.401116     0.007504
AU        0.324694    0.359335    0.401699     0.007504
AU        0.329229    0.397082    0.365251     0.007504
AU        0.365147    0.360978    0.366347     0.007504
AU        0.363974    0.400735    0.405057     0.007504
AU        0.406073    0.362377    0.407692     0.007504
AU        0.405609    0.397901    0.366866     0.007504
AU        0.446641    0.359426    0.361402     0.007504
AU        0.444572    0.400357    0.403993     0.007504
AU        0.483936    0.360508    0.404039     0.007504
AU        0.480948    0.400794    0.366413     0.007504
AU        0.521646    0.364476    0.366261     0.007504
AU        0.522892    0.399408    0.405680     0.007504
AU        0.562728    0.362154    0.406872     0.007504
AU        0.561393    0.400724    0.367955     0.007504
AU        0.598754    0.359798    0.365600     0.007504
AU        0.597792    0.398988    0.406019     0.007504
AU        0.636251    0.359968    0.405267     0.007504
AU        0.635424    0.399764    0.367002     0.007504
AU        0.674884    0.361588    0.367916     0.007504
AU        0.676195    0.398237    0.405139     0.007504
AU        0.715477    0.359869    0.403119     0.007504
AU        0.716176    0.399797    0.365929     0.007504
AU        0.752510    0.358864    0.364392     0.007504
AU        0.755550    0.400165    0.402178     0.007504
AU        0.791528    0.359887    0.401890     0.007504
AU        0.791458    0.400728    0.362945     0.007504
NI        0.827458    0.359192    0.366970     0.004307
NI        0.827173    0.398348    0.402129     0.004307
NI        0.855129    0.358918    0.405945     0.004307
NI        0.856460    0.396303    0.361883     0.004307
NI        0.880256    0.397461    0.404592     0.004307
NI        0.000769    0.433462    0.369914     0.004307
NI        0.001042    0.475379    0.401936     0.004307
NI        0.031577    0.440006    0.405309     0.004307
NI        0.029612    0.474280    0.364372     0.004307
NI        0.064252    0.441808    0.364509     0.004307
NI        0.063255    0.476812    0.402025     0.004307
AU        0.098632    0.439130    0.403567     0.007504
AU        0.096691    0.477004    0.366179     0.007504
AU        0.136248    0.441643    0.364234     0.007504
AU        0.135872    0.477228    0.403000     0.007504
AU        0.175709    0.438894    0.402422     0.007504
AU        0.174912    0.479852    0.366245     0.007504
AU        0.212478    0.440811    0.364427     0.007504
AU        0.212115    0.478668    0.403471     0.007504
AU        0.251313    0.437875    0.406519     0.007504
AU        0.250398    0.478216    0.365312     0.007504
AU        0.290778    0.437264    0.365053     0.007504
AU        0.290255    0.477032    0.401874     0.007504
AU        0.328132    0.438568    0.403191     0.007504
AU        0.328922    0.478498    0.362923     0.007504
AU        0.368533    0.440574    0.366236     0.007504
AU        0.368632    0.476254    0.404012     0.007504
AU        0.407553    0.438812    0.403192     0.007504
AU        0.406555    0.477066    0.364027     0.007504
AU        0.445797    0.437318    0.366149     0.007504
AU        0.444955    0.476759    0.400445     0.007504
AU        0.483524    0.438078    0.403844     0.007504
AU        0.481614    0.476102    0.364429     0.007504
AU        0.522518    0.439840    0.368761     0.007504
AU        0.520657    0.478899    0.402380     0.007504
AU        0.561741    0.439366    0.404959     0.007504
AU        0.560863    0.478016    0.364964     0.007504
AU        0.597442    0.440917    0.365644     0.007504
AU        0.598819    0.476815    0.404412     0.007504
AU        0.638729    0.438297    0.405703     0.007504
AU        0.638143    0.477493    0.366049     0.007504
AU        0.674905    0.440042    0.365688     0.007504
AU        0.676571    0.479011    0.405719     0.007504
AU        0.715357    0.437664    0.403842     0.007504
AU        0.715845    0.480124    0.365515     0.007504
AU        0.752828    0.441129    0.364070     0.007504
AU        0.753780    0.476319    0.403011     0.007504
AU        0.795155    0.436399    0.402873     0.007504
AU        0.794462    0.477606    0.366591     0.007504
NI        0.828446    0.432202    0.365171     0.004307
NI        0.825777    0.476399    0.407059     0.004307
NI        0.855598    0.436625    0.407609     0.004307
NI        0.846182    0.476478    0.363900     0.004307
NI        0.876396    0.439343    0.364122     0.004307
NI        0.877162    0.478469    0.399648     0.004307
NI        0.030946    0.512231    0.401312     0.004307
NI        0.048186    0.556773    0.355478     0.004307
NI        0.062318    0.514269    0.367049     0.004307
NI        0.064039    0.550061    0.403677     0.004307
AU        0.096788    0.514742    0.405152     0.007504
AU        0.097353    0.556339    0.367686     0.007504
AU        0.134545    0.515414    0.367262     0.007504
AU        0.136277    0.553856    0.408785     0.007504
AU        0.176604    0.517544    0.404232     0.007504
AU        0.171378    0.554312    0.365847     0.007504
AU        0.211965    0.518459    0.365104     0.007504
AU        0.213192    0.553964    0.401776     0.007504
AU        0.252751    0.517986    0.403022     0.007504
AU        0.249528    0.556437    0.363847     0.007504
AU        0.289875    0.519728    0.363138     0.007504
AU        0.291862    0.556657    0.401375     0.007504
AU        0.329325    0.514860    0.399539     0.007504
AU        0.328657    0.555527    0.364186     0.007504
AU        0.369001    0.514014    0.363612     0.007504
AU        0.368181    0.551767    0.404505     0.007504
AU        0.410141    0.514303    0.403673     0.007504
AU        0.405582    0.553928    0.367716     0.007504
AU        0.446885    0.515659    0.364064     0.007504
AU        0.447078    0.553945    0.402056     0.007504
AU        0.483302    0.514166    0.403139     0.007504
AU        0.485176    0.554399    0.362676     0.007504
AU        0.522761    0.517310    0.364408     0.007504
AU        0.524274    0.557543    0.401219     0.007504
AU        0.561875    0.514605    0.406703     0.007504
AU        0.563847    0.555692    0.363936     0.007504
AU        0.599301    0.515086    0.367716     0.007504
AU        0.598468    0.555837    0.403179     0.007504
AU        0.636703    0.518036    0.404333     0.007504
AU        0.637383    0.555280    0.364029     0.007504
AU        0.675692    0.515571    0.366103     0.007504
AU        0.679986    0.557293    0.404099     0.007504
AU        0.717006    0.516011    0.405320     0.007504
AU        0.717481    0.551713    0.364879     0.007504
AU        0.756552    0.516627    0.365069     0.007504
AU        0.757188    0.553939    0.404192     0.007504
AU        0.795963    0.516774    0.406804     0.007504
AU        0.792405    0.559759    0.367999     0.007504
NI        0.823051    0.520891    0.364312     0.004307
NI        0.823441    0.561201    0.406787     0.004307
NI        0.853394    0.518917    0.403474     0.004307
NI        0.839373    0.565578    0.359199     0.004307
NI        0.044794    0.595827    0.407376     0.004307
NI        0.037055    0.637807    0.376249     0.004307
NI        0.069409    0.601452    0.369488     0.004307
NI        0.074251    0.631003    0.407085     0.004307
NI        0.101692    0.591208    0.404359     0.004307
NI        0.103983    0.635093    0.370295     0.004307
AU        0.135792    0.594002    0.364944     0.007504
AU        0.140492    0.631476    0.406965     0.007504
AU        0.174355    0.590789    0.405448     0.007504
AU        0.174555    0.631810    0.368935     0.007504
AU        0.212109    0.592032    0.363835     0.007504
AU        0.214310    0.630260    0.404431     0.007504
AU        0.250615    0.591952    0.402045     0.007504
AU        0.249567    0.631308    0.365134     0.007504
AU        0.289147    0.594423    0.364888     0.007504
AU        0.292432    0.630279    0.404919     0.007504
AU        0.330295    0.593999    0.401795     0.007504
AU        0.328499    0.630845    0.364611     0.007504
AU        0.368520    0.593005    0.365954     0.007504
AU        0.367140    0.634470    0.402502     0.007504
AU        0.407919    0.592700    0.402852     0.007504
AU        0.407326    0.630434    0.363453     0.007504
AU        0.445051    0.593181    0.363804     0.007504
AU        0.446930    0.634675    0.402999     0.007504
AU        0.483568    0.593969    0.401624     0.007504
AU        0.481431    0.634319    0.363553     0.007504
AU        0.523196    0.596589    0.367216     0.007504
AU        0.523244    0.633404    0.402529     0.007504
AU        0.563123    0.595516    0.403112     0.007504
AU        0.559848    0.634308    0.363681     0.007504
AU        0.601260    0.594495    0.362793     0.007504
AU        0.598267    0.635954    0.402981     0.007504
AU        0.637019    0.593540    0.403983     0.007504
AU        0.639133    0.633035    0.367105     0.007504
AU        0.677254    0.593389    0.363842     0.007504
AU        0.674412    0.631724    0.406699     0.007504
AU        0.714530    0.595226    0.404552     0.007504
AU        0.715637    0.633416    0.368300     0.007504
AU        0.751311    0.593957    0.366678     0.007504
AU        0.754467    0.632819    0.407528     0.007504
NI        0.786200    0.595143    0.404013     0.004307
NI        0.778039    0.636395    0.364311     0.004307
NI        0.813284    0.607048    0.365852     0.004307
NI        0.808015    0.639407    0.403303     0.004307
NI        0.843554    0.609847    0.400823     0.004307
NI        0.844455    0.640720    0.362246     0.004307
NI        0.074689    0.675250    0.370894     0.004307
NI        0.076649    0.703176    0.409993     0.004307
NI        0.108298    0.670508    0.405562     0.004307
NI        0.110481    0.704431    0.374992     0.004307
NI        0.139669    0.666961    0.367954     0.004307
NI        0.143725    0.708604    0.410852     0.004307
AU        0.175376    0.670739    0.406766     0.007504
NI        0.176172    0.707493    0.369335     0.004307
AU        0.215073    0.670315    0.369185     0.007504
AU        0.212757    0.706541    0.405625     0.007504
AU        0.254920    0.667371    0.405092     0.007504
AU        0.252072    0.707860    0.365906     0.007504
AU        0.288925    0.672292    0.364242     0.007504
AU        0.291895    0.708450    0.403192     0.007504
AU        0.327936    0.670080    0.402943     0.007504
AU        0.328506    0.711153    0.365218     0.007504
AU        0.367169    0.673832    0.362401     0.007504
AU        0.366392    0.710691    0.404149     0.007504
AU        0.406648    0.672053    0.401392     0.007504
AU        0.406962    0.709276    0.365778     0.007504
AU        0.443432    0.672712    0.360029     0.007504
AU        0.444764    0.709417    0.401702     0.007504
AU        0.483127    0.673335    0.402065     0.007504
AU        0.482331    0.708440    0.363445     0.007504
AU        0.520531    0.671440    0.362679     0.007504
AU        0.522510    0.712029    0.400358     0.007504
AU        0.559390    0.673458    0.402359     0.007504
AU        0.562199    0.710160    0.364320     0.007504
AU        0.598502    0.671993    0.366128     0.007504
AU        0.598637    0.709099    0.405403     0.007504
AU        0.638807    0.670446    0.406222     0.007504
AU        0.639083    0.709035    0.367225     0.007504
AU        0.676567    0.671661    0.367342     0.007504
AU        0.676720    0.707861    0.407270     0.007504
AU        0.712729    0.670684    0.404711     0.007504
NI        0.711602    0.707740    0.366526     0.004307
NI        0.748443    0.671910    0.367905     0.004307
NI        0.745065    0.708000    0.405778     0.004307
NI        0.777207    0.676333    0.407496     0.004307
NI        0.778353    0.707006    0.371442     0.004307
NI        0.807099    0.672746    0.369862     0.004307
NI        0.810117    0.707066    0.412196     0.004307
NI        0.108656    0.739066    0.411319     0.004307
NI        0.142131    0.737572    0.372226     0.004307
NI        0.143750    0.772512    0.409535     0.004307
NI        0.179677    0.740703    0.408157     0.004307
NI        0.173845    0.774423    0.369746     0.004307
NI        0.208259    0.743122    0.372726     0.004307
NI        0.214552    0.773255    0.408501     0.004307
AU        0.253987    0.744542    0.405137     0.007504
NI        0.247034    0.774109    0.365705     0.004307
AU        0.291217    0.748758    0.364619     0.007504
NI        0.293135    0.784379    0.401210     0.004307
AU        0.327850    0.748091    0.402778     0.007504
AU        0.329225    0.785749    0.365043     0.007504
AU        0.366989    0.748003    0.365592     0.007504
AU        0.365959    0.789872    0.402828     0.007504
AU        0.402550    0.749545    0.402616     0.007504
AU        0.409499    0.790866    0.363975     0.007504
AU        0.445314    0.750515    0.366660     0.007504
AU        0.446354    0.790972    0.405159     0.007504
AU        0.483897    0.745880    0.402132     0.007504
AU        0.484750    0.783854    0.365188     0.007504
AU        0.521861    0.745557    0.361335     0.007504
AU        0.523528    0.787868    0.401494     0.007504
AU        0.560143    0.750323    0.401170     0.007504
AU        0.562656    0.791466    0.366293     0.007504
AU        0.600785    0.746654    0.367649     0.007504
NI        0.603462    0.780814    0.403115     0.004307
AU        0.637793    0.746721    0.406059     0.007504
NI        0.641299    0.777522    0.366931     0.004307
NI        0.676129    0.745858    0.368562     0.004307
NI        0.678123    0.774117    0.408029     0.004307
NI        0.711824    0.741036    0.406598     0.004307
NI        0.713148    0.772618    0.372460     0.004307
NI        0.745189    0.739388    0.369031     0.004307
NI        0.745299    0.772765    0.406730     0.004307
NI        0.778631    0.740239    0.407810     0.004307
NI        0.179622    0.804965    0.407388     0.004307
NI        0.211094    0.806984    0.372468     0.004307
NI        0.246709    0.806473    0.404855     0.004307
NI        0.248009    0.837055    0.366714     0.004307
NI        0.282593    0.807297    0.361267     0.004307
NI        0.285040    0.839119    0.401075     0.004307
NI        0.328389    0.818821    0.404012     0.004307
NI        0.322598    0.835715    0.359412     0.004307
NI        0.366097    0.820422    0.366932     0.004307
NI        0.365352    0.847696    0.405776     0.004307
NI        0.404255    0.821398    0.404450     0.004307
NI        0.409515    0.840984    0.361719     0.004307
NI        0.454247    0.821352    0.360615     0.004307
NI        0.446251    0.841398    0.406758     0.004307
NI        0.488698    0.824173    0.395758     0.004307
NI        0.488270    0.851672    0.351662     0.004307
NI        0.520326    0.819325    0.356580     0.004307
NI        0.529176    0.846997    0.393920     0.004307
NI        0.570900    0.817026    0.408100     0.004307
NI        0.569647    0.838662    0.364920     0.004307
NI        0.610310    0.812211    0.368365     0.004307
NI        0.611579    0.844135    0.405398     0.004307
NI        0.641886    0.808496    0.408264     0.004307
NI        0.646716    0.840469    0.371244     0.004307
NI        0.678158    0.805648    0.372279     0.004307
NI        0.711984    0.806352    0.408541     0.004307
NI        0.409222    0.872417    0.403384     0.004307
NI        0.447326    0.867477    0.368103     0.004307
NI        0.487612    0.868215    0.398737     0.004307
NI        0.247021    0.036416    0.446994     0.004307
NI        0.282169    0.040953    0.487687     0.004307
NI        0.322802    0.034851    0.446571     0.004307
NI        0.366433    0.012174    0.443738     0.004307
NI        0.363482    0.029532    0.486755     0.004307
NI        0.403329    0.005601    0.479611     0.004307
NI        0.407506    0.034133    0.443976     0.004307
NI        0.442655    0.002732    0.438635     0.004307
NI        0.444839    0.033900    0.484105     0.004307
NI        0.485845    0.008368    0.486232     0.004307
NI        0.483597    0.030779    0.439727     0.004307
NI        0.524187    0.006641    0.448592     0.004307
NI        0.534036    0.039305    0.479366     0.004307
NI        0.566176    0.034552    0.444572     0.004307
NI        0.610416    0.037964    0.481030     0.004307
NI        0.642411    0.038380    0.437297     0.004307
NI        0.144000    0.106225    0.480215     0.004307
NI        0.178436    0.071969    0.477263     0.004307
NI        0.179025    0.104082    0.443978     0.004307
NI        0.214181    0.067549    0.443657     0.004307
NI        0.212465    0.104003    0.482056     0.004307
NI        0.245444    0.070912    0.485640     0.004307
NI        0.246194    0.099815    0.445881     0.004307
NI        0.281027    0.065884    0.445487     0.004307
NI        0.288467    0.093507    0.483296     0.004307
NI        0.328064    0.060395    0.486858     0.004307
AU        0.322733    0.089560    0.445487     0.007504
NI        0.362839    0.058378    0.448392     0.004307
AU        0.364278    0.094203    0.483911     0.007504
NI        0.401158    0.057522    0.486759     0.004307
AU        0.404695    0.088978    0.443314     0.007504
NI        0.446198    0.058695    0.444238     0.004307
AU        0.443162    0.087971    0.483422     0.007504
NI        0.488330    0.052025    0.482871     0.004307
AU        0.481274    0.090662    0.444289     0.007504
NI        0.522782    0.056859    0.440309     0.004307
AU        0.523222    0.092732    0.482361     0.007504
NI        0.573562    0.062651    0.483863     0.004307
AU        0.560423    0.088005    0.441462     0.007504
NI        0.606290    0.065551    0.444711     0.004307
NI        0.602450    0.097501    0.484094     0.004307
NI        0.641847    0.072526    0.483037     0.004307
NI        0.638176    0.097282    0.442730     0.004307
NI        0.674839    0.070937    0.447004     0.004307
NI        0.678608    0.100732    0.480262     0.004307
NI        0.711377    0.064123    0.476031     0.004307
NI        0.709119    0.102726    0.445429     0.004307
NI        0.744360    0.100768    0.478337     0.004307
NI        0.074042    0.171378    0.477941     0.004307
NI        0.110735    0.138408    0.480038     0.004307
NI        0.113428    0.172005    0.447929     0.004307
NI        0.145628    0.138665    0.442557     0.004307
NI        0.144699    0.170322    0.486179     0.004307
NI        0.179508    0.136324    0.481720     0.004307
NI        0.176257    0.173259    0.446184     0.004307
NI        0.209787    0.137747    0.445806     0.004307
AU        0.212093    0.172045    0.482649     0.007504
AU        0.250112    0.132479    0.482398     0.007504
AU        0.252821    0.170025    0.443482     0.007504
AU        0.287128    0.128105    0.442207     0.007504
AU        0.287475    0.169695    0.481376     0.007504
AU        0.326188    0.131800    0.481161     0.007504
AU        0.329714    0.165850    0.441865     0.007504
AU        0.365816    0.125159    0.441035     0.007504
AU        0.367111    0.165823    0.480857     0.007504
AU        0.404873    0.129384    0.481105     0.007504
AU        0.402638    0.166365    0.440799     0.007504
AU        0.443688    0.129798    0.445591     0.007504
AU        0.442662    0.166844    0.479496     0.007504
AU        0.483941    0.129803    0.480296     0.007504
AU        0.482858    0.167274    0.442613     0.007504
AU        0.522349    0.127107    0.442342     0.007504
AU        0.520949    0.166655    0.482273     0.007504
AU        0.561501    0.127076    0.480912     0.007504
AU        0.556692    0.165607    0.443434     0.007504
AU        0.599024    0.126111    0.442203     0.007504
AU        0.599159    0.168344    0.480882     0.007504
AU        0.637979    0.131124    0.480928     0.007504
AU        0.635962    0.169550    0.443267     0.007504
NI        0.674530    0.134131    0.443757     0.004307
AU        0.673163    0.169516    0.481451     0.007504
NI        0.711562    0.136358    0.484129     0.004307
NI        0.709048    0.168920    0.447060     0.004307
NI        0.744979    0.135178    0.448742     0.004307
NI        0.745782    0.169469    0.485222     0.004307
NI        0.778627    0.137081    0.484008     0.004307
NI        0.782403    0.167004    0.445723     0.004307
NI        0.813111    0.170489    0.485777     0.004307
NI        0.054945    0.244369    0.442722     0.004307
NI        0.084837    0.208001    0.445423     0.004307
NI        0.079944    0.240392    0.484450     0.004307
NI        0.107978    0.201986    0.483309     0.004307
NI        0.097483    0.255698    0.444148     0.004307
NI        0.138115    0.211128    0.446690     0.004307
AU        0.131265    0.246449    0.480387     0.007504
AU        0.171879    0.209610    0.486119     0.007504
AU        0.174025    0.245879    0.444265     0.007504
AU        0.213369    0.208331    0.445047     0.007504
AU        0.212701    0.247021    0.483636     0.007504
AU        0.250688    0.209005    0.481752     0.007504
AU        0.250655    0.244621    0.441844     0.007504
AU        0.288099    0.208595    0.443735     0.007504
AU        0.289907    0.244385    0.482507     0.007504
AU        0.329755    0.206598    0.482554     0.007504
AU        0.324981    0.243701    0.445025     0.007504
AU        0.364173    0.206150    0.440824     0.007504
AU        0.365281    0.242854    0.481631     0.007504
AU        0.404465    0.206226    0.480055     0.007504
AU        0.406508    0.243207    0.439815     0.007504
AU        0.443389    0.204462    0.441304     0.007504
AU        0.442509    0.245133    0.481050     0.007504
AU        0.482199    0.206548    0.482434     0.007504
AU        0.479802    0.244235    0.441152     0.007504
AU        0.519535    0.207186    0.442217     0.007504
AU        0.519501    0.244278    0.481783     0.007504
AU        0.559352    0.207964    0.482961     0.007504
AU        0.558813    0.245615    0.441009     0.007504
AU        0.597727    0.208285    0.444245     0.007504
AU        0.596812    0.245258    0.480546     0.007504
AU        0.638461    0.207824    0.482832     0.007504
AU        0.637482    0.245085    0.444676     0.007504
AU        0.677218    0.206849    0.441638     0.007504
AU        0.676250    0.245685    0.482476     0.007504
AU        0.711097    0.206005    0.482842     0.007504
AU        0.716397    0.243057    0.442018     0.007504
NI        0.748280    0.199798    0.444126     0.004307
AU        0.753164    0.242406    0.481048     0.007504
NI        0.777662    0.201952    0.485082     0.004307
NI        0.792702    0.252022    0.443097     0.004307
NI        0.804509    0.209265    0.447657     0.004307
NI        0.811939    0.238488    0.484206     0.004307
NI        0.837572    0.244472    0.441390     0.004307
NI        0.042614    0.280328    0.484576     0.004307
NI        0.035838    0.325825    0.445430     0.004307
NI        0.068023    0.289644    0.446063     0.004307
NI        0.065320    0.322421    0.480559     0.004307
NI        0.097025    0.286640    0.482446     0.004307
AU        0.097420    0.326976    0.442890     0.007504
AU        0.134929    0.284613    0.443987     0.007504
AU        0.132482    0.322851    0.481540     0.007504
AU        0.172401    0.282831    0.481247     0.007504
AU        0.173532    0.322415    0.444362     0.007504
AU        0.213465    0.282374    0.442053     0.007504
AU        0.214080    0.320917    0.479173     0.007504
AU        0.251697    0.282492    0.480220     0.007504
AU        0.252367    0.322972    0.441435     0.007504
AU        0.288866    0.280045    0.439937     0.007504
AU        0.289052    0.319939    0.480411     0.007504
AU        0.326985    0.282684    0.482478     0.007504
AU        0.329359    0.322178    0.442585     0.007504
AU        0.363382    0.281418    0.441552     0.007504
AU        0.365944    0.322767    0.481343     0.007504
AU        0.404125    0.283133    0.479181     0.007504
AU        0.404989    0.324390    0.444998     0.007504
AU        0.443575    0.286525    0.445118     0.007504
AU        0.445464    0.325682    0.479274     0.007504
AU        0.483258    0.284422    0.478961     0.007504
AU        0.484704    0.322728    0.442745     0.007504
AU        0.520186    0.282868    0.440725     0.007504
AU        0.521211    0.321973    0.480823     0.007504
AU        0.557841    0.285033    0.481549     0.007504
AU        0.559902    0.321772    0.441265     0.007504
AU        0.600172    0.284512    0.443706     0.007504
AU        0.598347    0.322543    0.480296     0.007504
AU        0.638105    0.284064    0.481135     0.007504
AU        0.638571    0.321808    0.443060     0.007504
AU        0.678301    0.282864    0.444388     0.007504
AU        0.677431    0.321615    0.481766     0.007504
AU        0.716199    0.281765    0.481345     0.007504
AU        0.713627    0.319077    0.443451     0.007504
AU        0.754893    0.282912    0.443801     0.007504
AU        0.750934    0.320602    0.483067     0.007504
NI        0.791403    0.285248    0.479123     0.004307
AU        0.792115    0.322698    0.441608     0.007504
NI        0.828962    0.288812    0.441881     0.004307
NI        0.820934    0.319510    0.481255     0.004307
NI        0.845080    0.274949    0.488139     0.004307
NI        0.857086    0.327075    0.445754     0.004307
NI        0.006702    0.366929    0.445561     0.004307
NI        0.010245    0.397507    0.480817     0.004307
NI        0.035966    0.358425    0.486430     0.004307
NI        0.037443    0.404152    0.444609     0.004307
NI        0.063525    0.363719    0.448822     0.004307
NI        0.063434    0.401722    0.481563     0.004307
AU        0.097074    0.363911    0.483662     0.007504
AU        0.094665    0.400848    0.441575     0.007504
AU        0.134905    0.363592    0.445857     0.007504
AU        0.132918    0.404205    0.482288     0.007504
AU        0.174025    0.362290    0.484699     0.007504
AU        0.171602    0.399628    0.442751     0.007504
AU        0.209583    0.361860    0.442393     0.007504
AU        0.211532    0.400118    0.482462     0.007504
AU        0.251522    0.360627    0.479303     0.007504
AU        0.252181    0.401905    0.441111     0.007504
AU        0.290306    0.361807    0.441075     0.007504
AU        0.289221    0.398172    0.477753     0.007504
AU        0.328022    0.358481    0.481724     0.007504
AU        0.327425    0.400592    0.439733     0.007504
AU        0.365545    0.361915    0.442749     0.007504
AU        0.362503    0.401396    0.479440     0.007504
AU        0.404706    0.361515    0.482199     0.007504
AU        0.405559    0.400783    0.443920     0.007504
AU        0.444257    0.363732    0.442054     0.007504
AU        0.442422    0.400766    0.480382     0.007504
AU        0.483795    0.361273    0.481499     0.007504
AU        0.482502    0.401741    0.442483     0.007504
AU        0.520604    0.359781    0.441969     0.007504
AU        0.521333    0.402397    0.482968     0.007504
AU        0.558954    0.360596    0.481634     0.007504
AU        0.561266    0.399945    0.445120     0.007504
AU        0.599888    0.360422    0.445126     0.007504
AU        0.602457    0.400601    0.482785     0.007504
AU        0.639871    0.360685    0.480228     0.007504
AU        0.637887    0.401876    0.443976     0.007504
AU        0.675617    0.359953    0.441846     0.007504
AU        0.678022    0.401788    0.481766     0.007504
AU        0.714612    0.361895    0.481842     0.007504
AU        0.715735    0.399995    0.440976     0.007504
AU        0.752440    0.356782    0.441719     0.007504
AU        0.753512    0.399284    0.484592     0.007504
AU        0.791792    0.358712    0.482078     0.007504
AU        0.792210    0.399353    0.441024     0.007504
NI        0.824932    0.360962    0.442195     0.004307
NI        0.823787    0.398214    0.478227     0.004307
NI        0.849473    0.358608    0.484484     0.004307
NI        0.850673    0.401083    0.442691     0.004307
NI        0.882613    0.367153    0.443676     0.004307
NI        0.879284    0.394015    0.481614     0.004307
NI        0.002622    0.439555    0.440815     0.004307
NI        0.013034    0.480144    0.481893     0.004307
NI        0.035192    0.439263    0.476282     0.004307
NI        0.032509    0.476542    0.436881     0.004307
NI        0.063735    0.442096    0.437992     0.004307
NI        0.062483    0.476664    0.480769     0.004307
AU        0.096481    0.440245    0.479543     0.007504
AU        0.094468    0.479304    0.441872     0.007504
AU        0.136387    0.438431    0.440811     0.007504
AU        0.134792    0.478184    0.481574     0.007504
AU        0.172693    0.437887    0.481641     0.007504
AU        0.174880    0.476576    0.443068     0.007504
AU        0.210589    0.438079    0.441289     0.007504
AU        0.213018    0.473972    0.480450     0.007504
AU        0.251712    0.437856    0.480973     0.007504
AU        0.250551    0.478180    0.443781     0.007504
AU        0.290899    0.440847    0.441909     0.007504
AU        0.288529    0.477673    0.481432     0.007504
AU        0.324752    0.437615    0.478936     0.007504
AU        0.330018    0.479283    0.441252     0.007504
AU        0.366167    0.440219    0.440570     0.007504
AU        0.368478    0.476034    0.479312     0.007504
AU        0.406620    0.440427    0.483783     0.007504
AU        0.408069    0.475594    0.439902     0.007504
AU        0.444910    0.438669    0.442780     0.007504
AU        0.446887    0.476147    0.480725     0.007504
AU        0.482497    0.440472    0.480804     0.007504
AU        0.483902    0.476436    0.441202     0.007504
AU        0.521247    0.438806    0.444262     0.007504
AU        0.524193    0.477576    0.478721     0.007504
AU        0.564316    0.437453    0.481496     0.007504
AU        0.562048    0.477893    0.444215     0.007504
AU        0.599122    0.439437    0.442022     0.007504
AU        0.597586    0.478903    0.482386     0.007504
AU        0.638598    0.439146    0.481454     0.007504
AU        0.637716    0.475543    0.441335     0.007504
AU        0.678182    0.438858    0.441932     0.007504
AU        0.677074    0.476671    0.478849     0.007504
AU        0.715890    0.442176    0.483510     0.007504
AU        0.717412    0.476555    0.442720     0.007504
AU        0.752420    0.437856    0.444199     0.007504
AU        0.753536    0.478072    0.480338     0.007504
AU        0.791375    0.437535    0.480845     0.007504
AU        0.790794    0.474209    0.441339     0.007504
NI        0.826801    0.439268    0.443361     0.004307
NI        0.826164    0.474689    0.478344     0.004307
NI        0.851981    0.436725    0.479558     0.004307
NI        0.856861    0.474381    0.441545     0.004307
NI        0.883897    0.432718    0.443548     0.004307
NI        0.882991    0.471806    0.480398     0.004307
NI        0.009913    0.515061    0.443880     0.004307
NI        0.039420    0.520312    0.483587     0.004307
NI        0.038643    0.561359    0.443409     0.004307
NI        0.060242    0.515669    0.438055     0.004307
NI        0.066339    0.559250    0.483579     0.004307
AU        0.095911    0.516715    0.479968     0.007504
AU        0.096809    0.557362    0.442527     0.007504
AU        0.136295    0.514495    0.443031     0.007504
AU        0.135157    0.554938    0.484253     0.007504
AU        0.173925    0.514849    0.482326     0.007504
AU        0.172305    0.552725    0.444535     0.007504
AU        0.211710    0.514267    0.445792     0.007504
AU        0.213127    0.553370    0.481453     0.007504
AU        0.252312    0.516292    0.483366     0.007504
AU        0.251031    0.552611    0.442131     0.007504
AU        0.289484    0.514748    0.441371     0.007504
AU        0.292976    0.554474    0.479841     0.007504
AU        0.330685    0.515462    0.478171     0.007504
AU        0.330944    0.552276    0.440707     0.007504
AU        0.369922    0.514132    0.441874     0.007504
AU        0.371134    0.554141    0.480742     0.007504
AU        0.405982    0.513802    0.480261     0.007504
AU        0.406639    0.553598    0.441740     0.007504
AU        0.446494    0.515481    0.441502     0.007504
AU        0.445416    0.554054    0.479750     0.007504
AU        0.485052    0.514433    0.481096     0.007504
AU        0.485892    0.554807    0.440623     0.007504
AU        0.522564    0.515757    0.440919     0.007504
AU        0.522134    0.554577    0.481344     0.007504
AU        0.562354    0.517131    0.479850     0.007504
AU        0.560663    0.556683    0.441109     0.007504
AU        0.599824    0.517953    0.441059     0.007504
AU        0.599212    0.554860    0.480832     0.007504
AU        0.636217    0.516360    0.483359     0.007504
AU        0.639974    0.554466    0.443081     0.007504
AU        0.676058    0.517082    0.444058     0.007504
AU        0.678491    0.554049    0.481181     0.007504
AU        0.716320    0.517918    0.479334     0.007504
AU        0.715996    0.555234    0.442066     0.007504
AU        0.757396    0.516831    0.444998     0.007504
AU        0.757237    0.554724    0.481619     0.007504
AU        0.794424    0.514255    0.484787     0.007504
AU        0.795563    0.554513    0.445062     0.007504
NI        0.826753    0.509257    0.446661     0.004307
NI        0.828467    0.550581    0.488951     0.004307
NI        0.854647    0.511017    0.484688     0.004307
NI        0.849408    0.557847    0.446521     0.004307
NI        0.877317    0.518585    0.444061     0.004307
NI        0.043675    0.604130    0.481707     0.004307
NI        0.042234    0.633919    0.443668     0.004307
NI        0.072985    0.599312    0.444731     0.004307
NI        0.078195    0.635604    0.482242     0.004307
NI        0.102067    0.595206    0.480910     0.004307
NI        0.108469    0.636438    0.445332     0.004307
AU        0.137008    0.592132    0.445068     0.007504
AU        0.139180    0.630982    0.480336     0.007504
AU        0.176648    0.592115    0.480005     0.007504
AU        0.174611    0.629970    0.442766     0.007504
AU        0.212922    0.590636    0.442058     0.007504
AU        0.215023    0.629214    0.481927     0.007504
AU        0.251403    0.590129    0.481290     0.007504
AU        0.251567    0.629796    0.444714     0.007504
AU        0.293498    0.592235    0.442900     0.007504
AU        0.293805    0.630065    0.481889     0.007504
AU        0.331143    0.591186    0.481767     0.007504
AU        0.329454    0.629687    0.441848     0.007504
AU        0.369833    0.595356    0.440079     0.007504
AU        0.368824    0.631631    0.482336     0.007504
AU        0.406645    0.592828    0.481226     0.007504
AU        0.403898    0.633793    0.440599     0.007504
AU        0.445946    0.595545    0.440614     0.007504
AU        0.444485    0.630433    0.478865     0.007504
AU        0.484218    0.591921    0.480065     0.007504
AU        0.487342    0.632904    0.439526     0.007504
AU        0.523391    0.594915    0.441032     0.007504
AU        0.520759    0.632867    0.480522     0.007504
AU        0.558418    0.596096    0.480719     0.007504
AU        0.560138    0.634791    0.441603     0.007504
AU        0.596971    0.594625    0.441632     0.007504
AU        0.596804    0.631172    0.483038     0.007504
AU        0.636398    0.591828    0.483098     0.007504
AU        0.634511    0.632086    0.443939     0.007504
AU        0.676454    0.594304    0.442359     0.007504
AU        0.677877    0.630790    0.482858     0.007504
AU        0.716520    0.591023    0.479667     0.007504
AU        0.716099    0.631521    0.444665     0.007504
AU        0.756215    0.591879    0.443837     0.007504
AU        0.756534    0.628237    0.482053     0.007504
NI        0.792130    0.589600    0.482161     0.004307
NI        0.785422    0.632663    0.443665     0.004307
NI        0.816673    0.601075    0.442226     0.004307
NI        0.806385    0.633620    0.485649     0.004307
NI        0.841645    0.598288    0.482617     0.004307
NI        0.841604    0.637706    0.448966     0.004307
NI        0.078202    0.667525    0.442986     0.004307
NI        0.076631    0.702152    0.481714     0.004307
NI        0.113701    0.672782    0.478887     0.004307
NI        0.110415    0.702617    0.445181     0.004307
NI        0.141922    0.668104    0.442958     0.004307
NI        0.145174    0.705972    0.484823     0.004307
AU        0.176182    0.667778    0.480811     0.007504
NI        0.176662    0.700956    0.444378     0.004307
AU        0.214236    0.668679    0.442479     0.007504
AU        0.213124    0.706850    0.481607     0.007504
AU        0.253383    0.666945    0.482786     0.007504
AU        0.252287    0.706482    0.445619     0.007504
AU        0.292586    0.669011    0.442317     0.007504
AU        0.291235    0.708949    0.480571     0.007504
AU        0.328975    0.668812    0.480857     0.007504
AU        0.327968    0.708911    0.442431     0.007504
AU        0.367937    0.671973    0.442430     0.007504
AU        0.365900    0.709740    0.481009     0.007504
AU        0.408759    0.669417    0.481675     0.007504
AU        0.405799    0.710312    0.438772     0.007504
AU        0.445319    0.671981    0.440010     0.007504
AU        0.442048    0.712324    0.480367     0.007504
AU        0.483066    0.671168    0.478771     0.007504
AU        0.482969    0.712779    0.442859     0.007504
AU        0.523438    0.673883    0.440145     0.007504
AU        0.519428    0.710096    0.481274     0.007504
AU        0.559086    0.671396    0.482657     0.007504
AU        0.559264    0.712441    0.440826     0.007504
AU        0.597996    0.674177    0.443175     0.007504
AU        0.598674    0.709718    0.481460     0.007504
AU        0.638246    0.669887    0.482569     0.007504
AU        0.638814    0.707615    0.444308     0.007504
AU        0.676373    0.668417    0.445242     0.007504
AU        0.677465    0.705978    0.483055     0.007504
AU        0.714861    0.668651    0.482960     0.007504
NI        0.713793    0.705602    0.442996     0.004307
NI        0.748130    0.672597    0.441432     0.004307
NI        0.745356    0.706939    0.479368     0.004307
NI        0.777627    0.673829    0.482503     0.004307
NI        0.775596    0.710252    0.445108     0.004307
NI        0.806534    0.674827    0.446414     0.004307
NI        0.810328    0.707552    0.481791     0.004307
NI        0.108795    0.737368    0.481641     0.004307
NI        0.146195    0.739756    0.445287     0.004307
NI        0.143716    0.769222    0.482151     0.004307
NI        0.179045    0.739215    0.481596     0.004307
NI        0.179215    0.773005    0.443816     0.004307
NI        0.211829    0.741906    0.445399     0.004307
NI        0.211862    0.774310    0.480749     0.004307
AU        0.252155    0.745894    0.480571     0.007504
NI        0.250809    0.779232    0.444383     0.004307
AU        0.291384    0.748736    0.442984     0.007504
NI        0.289997    0.783814    0.480583     0.004307
AU        0.327726    0.751141    0.481362     0.007504
AU        0.330221    0.786809    0.441600     0.007504
AU        0.366899    0.747424    0.442692     0.007504
AU        0.369583    0.786785    0.482341     0.007504
AU        0.404387    0.748129    0.479391     0.007504
AU        0.404959    0.785756    0.440162     0.007504
AU        0.445880    0.751722    0.440294     0.007504
AU        0.443275    0.786137    0.486096     0.007504
AU        0.482925    0.751351    0.480893     0.007504
AU        0.484258    0.789682    0.443017     0.007504
AU        0.522230    0.749744    0.441462     0.007504
AU        0.524579    0.788766    0.480618     0.007504
AU        0.560113    0.748238    0.482530     0.007504
AU        0.561703    0.783942    0.442892     0.007504
AU        0.599407    0.747612    0.441277     0.007504
NI        0.599817    0.782182    0.479901     0.004307
AU        0.637598    0.746966    0.481197     0.007504
NI        0.637563    0.779830    0.444049     0.004307
NI        0.677911    0.742718    0.445857     0.004307
NI        0.676154    0.775225    0.480213     0.004307
NI        0.711808    0.741446    0.481592     0.004307
NI        0.710970    0.776112    0.444940     0.004307
NI        0.741504    0.741655    0.445049     0.004307
NI        0.743833    0.776118    0.478312     0.004307
NI        0.777997    0.741067    0.478116     0.004307
NI        0.175301    0.805943    0.480550     0.004307
NI        0.210702    0.807281    0.443678     0.004307
NI        0.247412    0.806330    0.482022     0.004307
NI        0.248868    0.836821    0.445719     0.004307
NI        0.286507    0.810494    0.438982     0.004307
NI        0.281842    0.837509    0.478547     0.004307
NI        0.326115    0.817914    0.481517     0.004307
NI        0.326118    0.844027    0.442071     0.004307
NI        0.367448    0.821964    0.444431     0.004307
NI        0.364755    0.849160    0.481754     0.004307
NI        0.406105    0.821050    0.480733     0.004307
NI        0.406656    0.847566    0.442699     0.004307
NI        0.442310    0.817437    0.447515     0.004307
NI        0.443000    0.847519    0.481025     0.004307
NI        0.482491    0.817309    0.484245     0.004307
NI        0.482917    0.840313    0.436897     0.004307
NI        0.529704    0.822214    0.437467     0.004307
NI        0.523774    0.844679    0.482304     0.004307
NI        0.569393    0.816702    0.482817     0.004307
NI        0.569481    0.847034    0.444912     0.004307
NI        0.604191    0.813627    0.442918     0.004307
NI        0.608759    0.847331    0.479960     0.004307
NI        0.639283    0.806181    0.481912     0.004307
NI        0.641547    0.841569    0.444956     0.004307
NI        0.673547    0.806010    0.446922     0.004307
NI        0.709056    0.808364    0.480962     0.004307
NI        0.367394    0.874832    0.443951     0.004307
NI        0.405697    0.876384    0.479583     0.004307
NI        0.447209    0.874063    0.441221     0.004307
NI        0.483638    0.869331    0.474869     0.004307
NI        0.520115    0.866220    0.435594     0.004307
NI        0.246067    0.037680    0.523547     0.004307
NI        0.284698    0.045832    0.562015     0.004307
NI        0.321496    0.039788    0.531843     0.004307
NI        0.360156    0.041950    0.564395     0.004307
NI        0.398476    0.026992    0.523027     0.004307
NI        0.441350    0.005564    0.524538     0.004307
NI        0.443547    0.031942    0.565385     0.004307
NI        0.480092    0.034301    0.529046     0.004307
NI        0.524303    0.040488    0.566755     0.004307
NI        0.568715    0.039898    0.527131     0.004307
NI        0.603729    0.039601    0.561383     0.004307
NI        0.638978    0.038977    0.517548     0.004307
NI        0.176962    0.104024    0.517314     0.004307
NI        0.209972    0.070881    0.516514     0.004307
NI        0.213097    0.106021    0.556516     0.004307
NI        0.245432    0.068927    0.556780     0.004307
NI        0.247245    0.100749    0.521408     0.004307
NI        0.282556    0.069225    0.522511     0.004307
NI        0.283614    0.098949    0.557574     0.004307
NI        0.321796    0.072280    0.567190     0.004307
AU        0.325609    0.095136    0.522212     0.007504
NI        0.364339    0.060395    0.521553     0.004307
AU        0.369802    0.092798    0.559746     0.007504
NI        0.406166    0.058385    0.560694     0.004307
AU        0.404355    0.092413    0.522125     0.007504
NI        0.436492    0.054593    0.523722     0.004307
AU        0.441410    0.091808    0.560610     0.007504
NI        0.481459    0.061458    0.569306     0.004307
AU        0.483941    0.089085    0.518983     0.007504
NI        0.523929    0.057528    0.523450     0.004307
AU        0.520952    0.091321    0.563286     0.007504
NI        0.563845    0.068913    0.566649     0.004307
AU        0.560727    0.092908    0.520284     0.007504
NI        0.604293    0.070388    0.524112     0.004307
NI        0.601877    0.097397    0.558774     0.004307
NI        0.640840    0.069724    0.555045     0.004307
NI        0.640309    0.101329    0.521303     0.004307
NI        0.674332    0.069343    0.518865     0.004307
NI        0.676646    0.101526    0.557061     0.004307
NI        0.712220    0.100088    0.515362     0.004307
NI        0.104732    0.168360    0.518015     0.004307
NI        0.141862    0.136255    0.519670     0.004307
NI        0.140032    0.166942    0.560536     0.004307
NI        0.174029    0.134158    0.558456     0.004307
NI        0.176385    0.168541    0.521128     0.004307
NI        0.212389    0.137841    0.520654     0.004307
AU        0.211347    0.169488    0.558591     0.007504
NI        0.249885    0.136598    0.561436     0.004307
AU        0.251062    0.169835    0.521052     0.007504
AU        0.286683    0.132463    0.523565     0.007504
AU        0.287908    0.169848    0.563859     0.007504
AU        0.326392    0.130538    0.560057     0.007504
AU        0.326713    0.169809    0.519501     0.007504
AU        0.366562    0.128756    0.523003     0.007504
AU        0.365356    0.166756    0.560161     0.007504
AU        0.404136    0.131113    0.559319     0.007504
AU        0.405871    0.167305    0.519485     0.007504
AU        0.444902    0.125115    0.520804     0.007504
AU        0.443170    0.167944    0.556997     0.007504
AU        0.483194    0.128918    0.558950     0.007504
AU        0.481448    0.168215    0.520669     0.007504
AU        0.520184    0.129168    0.518525     0.007504
AU        0.520611    0.168325    0.557671     0.007504
AU        0.557817    0.129759    0.562133     0.007504
AU        0.559717    0.167731    0.522138     0.007504
AU        0.596901    0.130898    0.523696     0.007504
AU        0.598326    0.166120    0.561555     0.007504
NI        0.638401    0.133930    0.556728     0.004307
AU        0.635576    0.168122    0.520940     0.007504
NI        0.678333    0.131567    0.517840     0.004307
AU        0.677097    0.169135    0.556872     0.007504
NI        0.709457    0.133102    0.552635     0.004307
NI        0.709018    0.169917    0.519380     0.004307
NI        0.745063    0.135659    0.517840     0.004307
NI        0.746851    0.167067    0.557856     0.004307
NI        0.778216    0.169078    0.521106     0.004307
NI        0.045977    0.245919    0.516140     0.004307
NI        0.074389    0.204297    0.520317     0.004307
NI        0.076594    0.243147    0.560175     0.004307
NI        0.108086    0.204447    0.559052     0.004307
NI        0.106149    0.238292    0.523826     0.004307
NI        0.137154    0.202411    0.522357     0.004307
NI        0.138202    0.241563    0.558032     0.004307
AU        0.171346    0.204983    0.558937     0.007504
AU        0.170289    0.246277    0.520871     0.007504
AU        0.211682    0.209205    0.521624     0.007504
AU        0.208711    0.245989    0.560075     0.007504
AU        0.248035    0.206765    0.560757     0.007504
AU        0.247904    0.246772    0.520211     0.007504
AU        0.289120    0.206268    0.523326     0.007504
AU        0.292396    0.243229    0.561674     0.007504
AU        0.330338    0.204565    0.561504     0.007504
AU        0.329169    0.242769    0.521816     0.007504
AU        0.370277    0.206396    0.518400     0.007504
AU        0.365786    0.245110    0.561455     0.007504
AU        0.404886    0.207189    0.558881     0.007504
AU        0.405008    0.246008    0.519198     0.007504
AU        0.442637    0.209778    0.521028     0.007504
AU        0.444418    0.246652    0.558437     0.007504
AU        0.481516    0.208628    0.558766     0.007504
AU        0.482493    0.247150    0.518503     0.007504
AU        0.522088    0.207426    0.519983     0.007504
AU        0.522454    0.244743    0.559037     0.007504
AU        0.561428    0.207456    0.558179     0.007504
AU        0.560285    0.246355    0.521809     0.007504
AU        0.597471    0.205989    0.520190     0.007504
AU        0.598938    0.247232    0.558100     0.007504
AU        0.636340    0.207675    0.556969     0.007504
AU        0.634894    0.246941    0.520567     0.007504
AU        0.673355    0.208401    0.521833     0.007504
AU        0.676298    0.246138    0.555459     0.007504
AU        0.712452    0.206008    0.560825     0.007504
AU        0.715952    0.243578    0.517963     0.007504
NI        0.744649    0.200004    0.519613     0.004307
NI        0.745082    0.242168    0.557758     0.004307
NI        0.774621    0.203906    0.558389     0.004307
NI        0.777114    0.236915    0.524778     0.004307
NI        0.810129    0.204432    0.522642     0.004307
NI        0.812687    0.234267    0.560036     0.004307
NI        0.845517    0.236900    0.523001     0.004307
NI        0.046096    0.282089    0.562252     0.004307
NI        0.043915    0.315712    0.524037     0.004307
NI        0.075838    0.279488    0.524194     0.004307
NI        0.069757    0.323049    0.564024     0.004307
NI        0.101455    0.285698    0.560942     0.004307
AU        0.096128    0.324002    0.521338     0.007504
AU        0.131336    0.282817    0.521543     0.007504
AU        0.132394    0.322868    0.558638     0.007504
AU        0.168344    0.281258    0.560770     0.007504
AU        0.170526    0.318840    0.521284     0.007504
AU        0.209438    0.284737    0.522636     0.007504
AU        0.211222    0.321571    0.559489     0.007504
AU        0.251335    0.281686    0.557609     0.007504
AU        0.252813    0.322141    0.518592     0.007504
AU        0.289083    0.279612    0.521135     0.007504
AU        0.289830    0.322469    0.562743     0.007504
AU        0.327401    0.283243    0.560955     0.007504
AU        0.327298    0.321261    0.520920     0.007504
AU        0.365290    0.284815    0.518938     0.007504
AU        0.365179    0.322972    0.557370     0.007504
AU        0.406777    0.285388    0.558027     0.007504
AU        0.406043    0.322428    0.518381     0.007504
AU        0.443549    0.283998    0.517332     0.007504
AU        0.447099    0.324876    0.557139     0.007504
AU        0.484100    0.282796    0.558618     0.007504
AU        0.482684    0.318608    0.518488     0.007504
AU        0.519208    0.281790    0.519048     0.007504
AU        0.522140    0.320442    0.558286     0.007504
AU        0.563349    0.285130    0.558486     0.007504
AU        0.559989    0.323778    0.517330     0.007504
AU        0.601319    0.283259    0.517383     0.007504
AU        0.598564    0.322378    0.559405     0.007504
AU        0.636638    0.284898    0.559996     0.007504
AU        0.637991    0.321979    0.519673     0.007504
AU        0.675646    0.285435    0.518157     0.007504
AU        0.676560    0.323529    0.559459     0.007504
AU        0.715604    0.282545    0.560044     0.007504
AU        0.716890    0.318884    0.521412     0.007504
AU        0.754146    0.282560    0.519555     0.007504
AU        0.757036    0.318148    0.558323     0.007504
NI        0.784209    0.274013    0.558012     0.004307
AU        0.794508    0.316292    0.519649     0.007504
NI        0.811865    0.269759    0.522212     0.004307
NI        0.813996    0.312321    0.565238     0.004307
NI        0.840839    0.270862    0.564806     0.004307
NI        0.840658    0.308898    0.525719     0.004307
NI        0.041986    0.362265    0.567296     0.004307
NI        0.034059    0.396066    0.520378     0.004307
NI        0.064008    0.360715    0.523075     0.004307
NI        0.066349    0.403162    0.561358     0.004307
AU        0.098279    0.363890    0.560601     0.007504
AU        0.094136    0.403199    0.522890     0.007504
AU        0.134027    0.363417    0.520878     0.007504
AU        0.133097    0.402113    0.560171     0.007504
AU        0.176052    0.360587    0.559372     0.007504
AU        0.172394    0.399034    0.521474     0.007504
AU        0.215364    0.361005    0.518970     0.007504
AU        0.213578    0.397396    0.558312     0.007504
AU        0.252330    0.360397    0.558807     0.007504
AU        0.251839    0.397746    0.519610     0.007504
AU        0.286429    0.359812    0.517974     0.007504
AU        0.288806    0.398728    0.557494     0.007504
AU        0.324786    0.360242    0.556826     0.007504
AU        0.326375    0.399315    0.519925     0.007504
AU        0.365872    0.360782    0.518231     0.007504
AU        0.366369    0.397390    0.555128     0.007504
AU        0.403391    0.360142    0.559265     0.007504
AU        0.404602    0.399258    0.521251     0.007504
AU        0.442511    0.361462    0.520255     0.007504
AU        0.443240    0.399570    0.561977     0.007504
AU        0.482729    0.362048    0.556671     0.007504
AU        0.481801    0.396925    0.518278     0.007504
AU        0.521544    0.359122    0.519531     0.007504
AU        0.520604    0.396819    0.558255     0.007504
AU        0.558595    0.357565    0.559055     0.007504
AU        0.561720    0.398158    0.520993     0.007504
AU        0.600445    0.357658    0.518936     0.007504
AU        0.601826    0.398012    0.556752     0.007504
AU        0.637172    0.358608    0.558245     0.007504
AU        0.640282    0.400881    0.519992     0.007504
AU        0.676964    0.361623    0.518399     0.007504
AU        0.676880    0.400012    0.559366     0.007504
AU        0.713989    0.362574    0.559182     0.007504
AU        0.715605    0.401618    0.521301     0.007504
AU        0.754513    0.356325    0.520435     0.007504
AU        0.754031    0.395508    0.557839     0.007504
AU        0.794248    0.357258    0.563778     0.007504
AU        0.795041    0.397976    0.522335     0.007504
NI        0.828189    0.357337    0.525767     0.004307
NI        0.825833    0.400142    0.560829     0.004307
NI        0.839983    0.352522    0.571306     0.004307
NI        0.848849    0.395875    0.520630     0.004307
NI        0.010340    0.436073    0.514542     0.004307
NI        0.040489    0.439200    0.561314     0.004307
NI        0.040192    0.477531    0.521789     0.004307
NI        0.061682    0.435742    0.517440     0.004307
NI        0.063819    0.480093    0.561445     0.004307
AU        0.095773    0.441745    0.558288     0.007504
AU        0.095147    0.476168    0.521551     0.007504
AU        0.135976    0.440134    0.522165     0.007504
AU        0.131512    0.477704    0.562626     0.007504
AU        0.171760    0.440407    0.560543     0.007504
AU        0.173792    0.477584    0.520455     0.007504
AU        0.211465    0.437284    0.520403     0.007504
AU        0.210649    0.476183    0.558021     0.007504
AU        0.252980    0.437325    0.558119     0.007504
AU        0.250538    0.476410    0.521708     0.007504
AU        0.287625    0.436868    0.518472     0.007504
AU        0.290485    0.474558    0.557142     0.007504
AU        0.325728    0.439247    0.555913     0.007504
AU        0.329528    0.478428    0.516479     0.007504
AU        0.365451    0.437969    0.517935     0.007504
AU        0.366061    0.477534    0.555758     0.007504
AU        0.405399    0.437892    0.556565     0.007504
AU        0.408442    0.477087    0.521051     0.007504
AU        0.445793    0.437975    0.519889     0.007504
AU        0.444274    0.476548    0.558508     0.007504
AU        0.482732    0.435215    0.560094     0.007504
AU        0.485034    0.479120    0.519894     0.007504
AU        0.522927    0.437987    0.519644     0.007504
AU        0.520514    0.472567    0.559197     0.007504
AU        0.560682    0.438522    0.557091     0.007504
AU        0.558837    0.475522    0.518624     0.007504
AU        0.600608    0.437183    0.519578     0.007504
AU        0.599220    0.475950    0.557846     0.007504
AU        0.640397    0.438148    0.560167     0.007504
AU        0.638296    0.475592    0.519720     0.007504
AU        0.677912    0.438956    0.521312     0.007504
AU        0.677259    0.479045    0.559157     0.007504
AU        0.712775    0.438088    0.560695     0.007504
AU        0.715716    0.480050    0.520715     0.007504
AU        0.754912    0.439925    0.520926     0.007504
AU        0.753100    0.476613    0.561054     0.007504
AU        0.793445    0.436915    0.558837     0.007504
AU        0.794986    0.473472    0.520719     0.007504
NI        0.826056    0.433766    0.519899     0.004307
NI        0.826326    0.477311    0.559259     0.004307
NI        0.855880    0.439407    0.554445     0.004307
NI        0.851843    0.473603    0.517597     0.004307
NI        0.884543    0.434041    0.513966     0.004307
NI        0.044460    0.523496    0.561481     0.004307
NI        0.039902    0.556790    0.523974     0.004307
NI        0.064754    0.516984    0.520066     0.004307
NI        0.071925    0.562086    0.566855     0.004307
AU        0.095142    0.519334    0.563308     0.007504
AU        0.096476    0.554319    0.521594     0.007504
AU        0.133937    0.513445    0.522121     0.007504
AU        0.133852    0.554472    0.560888     0.007504
AU        0.171136    0.517193    0.560262     0.007504
AU        0.172903    0.552209    0.519749     0.007504
AU        0.212385    0.514313    0.519236     0.007504
AU        0.214152    0.551495    0.558911     0.007504
AU        0.251282    0.514790    0.556420     0.007504
AU        0.253358    0.553788    0.520881     0.007504
AU        0.290781    0.515376    0.520090     0.007504
AU        0.291697    0.554290    0.560858     0.007504
AU        0.328805    0.514510    0.557290     0.007504
AU        0.330157    0.554731    0.517853     0.007504
AU        0.369525    0.515710    0.519004     0.007504
AU        0.365480    0.552671    0.557942     0.007504
AU        0.404540    0.516782    0.557260     0.007504
AU        0.406194    0.553849    0.517648     0.007504
AU        0.446433    0.515124    0.517306     0.007504
AU        0.444017    0.555066    0.559085     0.007504
AU        0.483021    0.515055    0.557915     0.007504
AU        0.485788    0.555542    0.520784     0.007504
AU        0.523906    0.516712    0.517669     0.007504
AU        0.521907    0.552246    0.558974     0.007504
AU        0.560421    0.515887    0.557627     0.007504
AU        0.560078    0.557450    0.518279     0.007504
AU        0.597269    0.514913    0.520824     0.007504
AU        0.597690    0.552489    0.559109     0.007504
AU        0.636666    0.514814    0.559814     0.007504
AU        0.638067    0.554855    0.521545     0.007504
AU        0.673854    0.515140    0.518777     0.007504
AU        0.675822    0.551374    0.558237     0.007504
AU        0.716986    0.515615    0.562425     0.007504
AU        0.716108    0.553151    0.521484     0.007504
AU        0.754736    0.514736    0.520738     0.007504
AU        0.757002    0.554909    0.565771     0.007504
AU        0.794527    0.514290    0.560910     0.007504
AU        0.791293    0.553337    0.522568     0.007504
NI        0.828520    0.512973    0.523307     0.004307
NI        0.810197    0.560346    0.569039     0.004307
NI        0.838736    0.522948    0.572668     0.004307
NI        0.843138    0.559699    0.534680     0.004307
NI        0.038018    0.595308    0.555057     0.004307
NI        0.044390    0.634768    0.518458     0.004307
NI        0.070028    0.595770    0.518611     0.004307
NI        0.073535    0.635929    0.556837     0.004307
NI        0.101102    0.598072    0.558497     0.004307
NI        0.105692    0.630797    0.521043     0.004307
AU        0.134652    0.593247    0.523155     0.007504
NI        0.139421    0.631375    0.556837     0.004307
AU        0.175014    0.590923    0.558172     0.007504
AU        0.175289    0.629158    0.519435     0.007504
AU        0.215845    0.591788    0.520240     0.007504
AU        0.213302    0.629899    0.558387     0.007504
AU        0.252605    0.589291    0.559765     0.007504
AU        0.252787    0.628000    0.520259     0.007504
AU        0.292022    0.591202    0.519676     0.007504
AU        0.287948    0.628583    0.558721     0.007504
AU        0.329544    0.594140    0.559124     0.007504
AU        0.332265    0.632124    0.518586     0.007504
AU        0.368805    0.590507    0.519029     0.007504
AU        0.369050    0.629024    0.557607     0.007504
AU        0.405489    0.592063    0.554879     0.007504
AU        0.405530    0.634668    0.520861     0.007504
AU        0.445516    0.590651    0.517769     0.007504
AU        0.443785    0.633834    0.557553     0.007504
AU        0.481334    0.593264    0.556221     0.007504
AU        0.479774    0.630644    0.516851     0.007504
AU        0.522830    0.592217    0.519116     0.007504
AU        0.525755    0.633409    0.559405     0.007504
AU        0.560755    0.593469    0.559550     0.007504
AU        0.560352    0.631042    0.521694     0.007504
AU        0.598663    0.590798    0.520288     0.007504
AU        0.600548    0.629860    0.556374     0.007504
AU        0.637547    0.592638    0.556189     0.007504
AU        0.638983    0.632109    0.519970     0.007504
AU        0.679484    0.590880    0.520333     0.007504
AU        0.677965    0.630921    0.558295     0.007504
AU        0.718507    0.589534    0.560389     0.007504
AU        0.719395    0.630797    0.522999     0.007504
AU        0.754797    0.591601    0.520726     0.007504
NI        0.749105    0.626757    0.563961     0.004307
NI        0.786683    0.598329    0.562982     0.004307
NI        0.777492    0.635852    0.526345     0.004307
NI        0.812395    0.604191    0.522882     0.004307
NI        0.813126    0.641011    0.555800     0.004307
NI        0.835895    0.599867    0.563742     0.004307
NI        0.840194    0.641495    0.516146     0.004307
NI        0.076613    0.668624    0.515533     0.004307
NI        0.108092    0.666597    0.552768     0.004307
NI        0.111087    0.702564    0.517955     0.004307
NI        0.142270    0.667193    0.519413     0.004307
NI        0.143065    0.700928    0.553325     0.004307
AU        0.178299    0.668224    0.557264     0.007504
NI        0.179304    0.705758    0.519000     0.004307
AU        0.213412    0.668288    0.518132     0.007504
AU        0.214975    0.707913    0.558212     0.007504
AU        0.251333    0.667694    0.556714     0.007504
AU        0.252932    0.707846    0.518921     0.007504
AU        0.292048    0.669493    0.519147     0.007504
AU        0.293256    0.710511    0.556795     0.007504
AU        0.327257    0.669003    0.558999     0.007504
AU        0.329227    0.708916    0.520151     0.007504
AU        0.366702    0.669944    0.521421     0.007504
AU        0.366951    0.709392    0.557672     0.007504
AU        0.407171    0.671766    0.557694     0.007504
AU        0.402789    0.709826    0.518022     0.007504
AU        0.445435    0.671954    0.516657     0.007504
AU        0.444886    0.707993    0.557473     0.007504
AU        0.483198    0.668482    0.556252     0.007504
AU        0.484512    0.709763    0.521307     0.007504
AU        0.522831    0.670240    0.518454     0.007504
AU        0.522725    0.707047    0.558460     0.007504
AU        0.562929    0.670627    0.562479     0.007504
AU        0.562047    0.709741    0.521088     0.007504
AU        0.597849    0.670818    0.521463     0.007504
AU        0.600280    0.710481    0.560443     0.007504
AU        0.637661    0.668158    0.558858     0.007504
AU        0.638244    0.707792    0.519569     0.007504
AU        0.677738    0.670044    0.523059     0.007504
AU        0.676363    0.710672    0.559442     0.007504
AU        0.718204    0.673956    0.560728     0.007504
NI        0.714593    0.707295    0.518711     0.004307
NI        0.747266    0.673714    0.522856     0.004307
NI        0.747387    0.709532    0.555074     0.004307
NI        0.774067    0.670638    0.560784     0.004307
NI        0.777020    0.711055    0.514066     0.004307
NI        0.804007    0.675199    0.524402     0.004307
NI        0.145312    0.737757    0.520687     0.004307
NI        0.176607    0.741350    0.554325     0.004307
NI        0.177522    0.774879    0.518532     0.004307
NI        0.213366    0.741107    0.518486     0.004307
NI        0.213695    0.772348    0.555515     0.004307
NI        0.249555    0.743384    0.554443     0.004307
NI        0.250911    0.775962    0.520450     0.004307
AU        0.292317    0.748634    0.520505     0.007504
NI        0.285296    0.778797    0.558366     0.004307
AU        0.325205    0.753420    0.563870     0.007504
AU        0.329444    0.789238    0.519116     0.007504
AU        0.365607    0.747929    0.520116     0.007504
AU        0.369810    0.785911    0.561540     0.007504
AU        0.405162    0.746171    0.557957     0.007504
AU        0.404570    0.786735    0.521368     0.007504
AU        0.441807    0.743025    0.520165     0.007504
AU        0.445266    0.785434    0.557172     0.007504
AU        0.486295    0.745619    0.558906     0.007504
AU        0.485613    0.782878    0.522577     0.007504
AU        0.523601    0.748205    0.522618     0.007504
AU        0.522971    0.783842    0.563162     0.007504
AU        0.563347    0.749387    0.559606     0.007504
AU        0.562084    0.787800    0.523832     0.007504
AU        0.600000    0.748756    0.519194     0.007504
NI        0.605976    0.781379    0.558690     0.004307
NI        0.638755    0.744985    0.555687     0.004307
NI        0.640662    0.778590    0.521850     0.004307
NI        0.675042    0.742908    0.519994     0.004307
NI        0.677401    0.775321    0.556092     0.004307
NI        0.712719    0.742506    0.554577     0.004307
NI        0.708329    0.776941    0.516691     0.004307
NI        0.742513    0.743978    0.514752     0.004307
NI        0.214339    0.805896    0.517547     0.004307
NI        0.247802    0.813379    0.557351     0.004307
NI        0.248046    0.840195    0.517480     0.004307
NI        0.284030    0.811054    0.518505     0.004307
NI        0.288787    0.833577    0.560134     0.004307
NI        0.323070    0.805683    0.565665     0.004307
NI        0.325345    0.836087    0.529909     0.004307
NI        0.367249    0.819146    0.519132     0.004307
NI        0.362170    0.835306    0.564934     0.004307
NI        0.409776    0.819708    0.559350     0.004307
NI        0.405126    0.849688    0.519080     0.004307
NI        0.441949    0.820130    0.522303     0.004307
NI        0.444563    0.852127    0.556916     0.004307
NI        0.485234    0.819704    0.564589     0.004307
NI        0.477343    0.849953    0.516910     0.004307
NI        0.519003    0.817673    0.523715     0.004307
NI        0.529801    0.837491    0.566830     0.004307
NI        0.565959    0.806505    0.570937     0.004307
NI        0.564437    0.837658    0.526169     0.004307
NI        0.605478    0.812256    0.520169     0.004307
NI        0.601076    0.835443    0.563466     0.004307
NI        0.643202    0.809555    0.555080     0.004307
NI        0.638757    0.844274    0.518209     0.004307
NI        0.675085    0.811046    0.516663     0.004307
NI        0.441362    0.883524    0.517267     0.004307
NI        0.324031    0.045431    0.604741     0.004307
NI        0.371181    0.040475    0.642960     0.004307
NI        0.407595    0.041622    0.605075     0.004307
NI        0.443348    0.042204    0.639780     0.004307
NI        0.481225    0.036610    0.609275     0.004307
NI        0.519226    0.038078    0.646170     0.004307
NI        0.559551    0.040912    0.601079     0.004307
NI        0.178418    0.100635    0.597188     0.004307
NI        0.216716    0.104011    0.633728     0.004307
NI        0.253972    0.077071    0.636230     0.004307
NI        0.248792    0.099018    0.592221     0.004307
NI        0.287620    0.077456    0.600361     0.004307
NI        0.294851    0.103656    0.644993     0.004307
NI        0.331419    0.072870    0.642859     0.004307
NI        0.333039    0.101451    0.604307     0.004307
NI        0.366513    0.068692    0.604382     0.004307
NI        0.367619    0.102567    0.642214     0.004307
NI        0.406215    0.070718    0.641536     0.004307
NI        0.406467    0.093238    0.597522     0.004307
NI        0.445800    0.066665    0.601354     0.004307
NI        0.444876    0.097772    0.638385     0.004307
NI        0.483675    0.071159    0.640881     0.004307
NI        0.483845    0.096735    0.599687     0.004307
NI        0.520085    0.065898    0.607961     0.004307
NI        0.520706    0.101345    0.639012     0.004307
NI        0.556528    0.067990    0.641018     0.004307
NI        0.557972    0.097597    0.605821     0.004307
NI        0.596851    0.073765    0.600608     0.004307
NI        0.591765    0.101587    0.643381     0.004307
NI        0.630576    0.075575    0.631570     0.004307
NI        0.640136    0.101058    0.591435     0.004307
NI        0.670091    0.109464    0.630830     0.004307
NI        0.704444    0.106428    0.594539     0.004307
NI        0.107562    0.168138    0.598170     0.004307
NI        0.145751    0.135538    0.598681     0.004307
NI        0.145123    0.171763    0.635982     0.004307
NI        0.177948    0.135717    0.632079     0.004307
NI        0.176327    0.168917    0.598293     0.004307
NI        0.210318    0.132822    0.596939     0.004307
NI        0.213433    0.168526    0.637683     0.004307
NI        0.253470    0.134644    0.638123     0.004307
AU        0.246729    0.166893    0.599441     0.007504
AU        0.289654    0.127404    0.598217     0.007504
AU        0.291830    0.167368    0.636696     0.007504
NI        0.330243    0.134385    0.638419     0.004307
AU        0.330049    0.167140    0.599900     0.007504
AU        0.369292    0.131758    0.599185     0.007504
AU        0.368776    0.168229    0.638842     0.007504
AU        0.406393    0.130162    0.637120     0.007504
AU        0.406005    0.169191    0.598900     0.007504
AU        0.443251    0.127962    0.595953     0.007504
AU        0.443255    0.166031    0.638910     0.007504
AU        0.482091    0.130329    0.635116     0.007504
AU        0.481024    0.168775    0.598424     0.007504
AU        0.519132    0.131000    0.599743     0.007504
AU        0.521593    0.169175    0.638451     0.007504
NI        0.557863    0.134200    0.640956     0.004307
AU        0.558043    0.167193    0.600351     0.007504
AU        0.597535    0.126846    0.600474     0.007504
AU        0.597163    0.170486    0.637114     0.007504
NI        0.635662    0.140725    0.636147     0.004307
AU        0.636997    0.169998    0.595349     0.007504
NI        0.672814    0.137995    0.593479     0.004307
NI        0.675793    0.171840    0.630646     0.004307
NI        0.709473    0.138085    0.632393     0.004307
NI        0.708883    0.171435    0.596445     0.004307
NI        0.742694    0.140015    0.596792     0.004307
NI        0.740408    0.176238    0.631401     0.004307
NI        0.778360    0.171754    0.593642     0.004307
NI        0.087833    0.251678    0.632027     0.004307
NI        0.108693    0.203459    0.633720     0.004307
NI        0.108572    0.238505    0.592830     0.004307
NI        0.140721    0.206068    0.599598     0.004307
NI        0.137504    0.240158    0.633937     0.004307
NI        0.175254    0.209111    0.636373     0.004307
AU        0.171411    0.244762    0.598029     0.007504
AU        0.212638    0.205928    0.601338     0.007504
AU        0.212559    0.243244    0.636254     0.007504
AU        0.252514    0.204698    0.638171     0.007504
AU        0.249335    0.245076    0.596641     0.007504
AU        0.290182    0.209191    0.601146     0.007504
AU        0.291069    0.244755    0.639847     0.007504
AU        0.329678    0.206145    0.639409     0.007504
AU        0.330074    0.244008    0.599128     0.007504
AU        0.366721    0.207284    0.600181     0.007504
AU        0.368608    0.247098    0.635541     0.007504
AU        0.403341    0.207462    0.638083     0.007504
AU        0.405723    0.247961    0.597321     0.007504
AU        0.442435    0.209729    0.598175     0.007504
AU        0.443044    0.246477    0.637948     0.007504
AU        0.481152    0.206845    0.635388     0.007504
AU        0.482843    0.246918    0.597693     0.007504
AU        0.522320    0.208034    0.597634     0.007504
AU        0.520383    0.247449    0.634190     0.007504
AU        0.559721    0.208850    0.635320     0.007504
AU        0.561147    0.245103    0.596981     0.007504
AU        0.599331    0.208138    0.596503     0.007504
AU        0.599114    0.246429    0.635939     0.007504
AU        0.636503    0.207768    0.636071     0.007504
AU        0.636501    0.247465    0.598941     0.007504
AU        0.674430    0.207863    0.596448     0.007504
AU        0.675489    0.247220    0.637380     0.007504
NI        0.707368    0.208196    0.634560     0.004307
AU        0.711899    0.246371    0.598482     0.007504
NI        0.744900    0.207902    0.595200     0.004307
NI        0.744933    0.244577    0.635022     0.004307
NI        0.774831    0.207993    0.631823     0.004307
NI        0.778782    0.238096    0.593948     0.004307
NI        0.806539    0.244858    0.632351     0.004307
NI        0.041626    0.325073    0.600184     0.004307
NI        0.074820    0.288621    0.600728     0.004307
NI        0.071336    0.333953    0.637611     0.004307
NI        0.098795    0.296892    0.640524     0.004307
NI        0.100966    0.326600    0.602345     0.004307
AU        0.129189    0.280708    0.601759     0.007504
NI        0.137368    0.323998    0.634143     0.004307
AU        0.171499    0.284615    0.634058     0.007504
AU        0.170727    0.323004    0.597686     0.007504
AU        0.209858    0.284262    0.595377     0.007504
AU        0.209271    0.323739    0.634452     0.007504
AU        0.249438    0.284265    0.636524     0.007504
AU        0.251858    0.322042    0.599190     0.007504
AU        0.288814    0.284108    0.601487     0.007504
AU        0.289782    0.323185    0.638337     0.007504
AU        0.326695    0.284734    0.636088     0.007504
AU        0.328739    0.321932    0.597593     0.007504
AU        0.367235    0.283633    0.598258     0.007504
AU        0.365932    0.325195    0.636561     0.007504
AU        0.405262    0.284760    0.637995     0.007504
AU        0.404798    0.321461    0.597473     0.007504
AU        0.447444    0.285311    0.598424     0.007504
AU        0.444433    0.324158    0.635199     0.007504
AU        0.483584    0.284257    0.636827     0.007504
AU        0.484239    0.322211    0.595242     0.007504
AU        0.520891    0.283956    0.596893     0.007504
AU        0.521917    0.320371    0.635509     0.007504
AU        0.560611    0.283809    0.637638     0.007504
AU        0.559351    0.321238    0.599392     0.007504
AU        0.599552    0.284605    0.599372     0.007504
AU        0.598847    0.324566    0.637148     0.007504
AU        0.637811    0.285310    0.639201     0.007504
AU        0.638849    0.321681    0.598683     0.007504
AU        0.678909    0.284335    0.597898     0.007504
AU        0.677307    0.321515    0.642102     0.007504
AU        0.713979    0.285619    0.636892     0.007504
AU        0.716890    0.322168    0.596588     0.007504
AU        0.754180    0.280710    0.597496     0.007504
NI        0.750625    0.322615    0.639109     0.004307
NI        0.780862    0.282170    0.639965     0.004307
NI        0.786229    0.322621    0.601781     0.004307
NI        0.806328    0.278406    0.600681     0.004307
NI        0.808086    0.321950    0.643918     0.004307
NI        0.833943    0.320445    0.606666     0.004307
NI        0.038742    0.369037    0.632928     0.004307
NI        0.038663    0.401817    0.598411     0.004307
NI        0.072342    0.363922    0.601697     0.004307
NI        0.071460    0.404338    0.636785     0.004307
NI        0.102935    0.368975    0.637282     0.004307
NI        0.098855    0.403465    0.598905     0.004307
AU        0.133905    0.363229    0.599610     0.007504
AU        0.138540    0.403609    0.635105     0.007504
AU        0.172975    0.363121    0.638197     0.007504
AU        0.178190    0.402074    0.596189     0.007504
AU        0.211426    0.361440    0.595791     0.007504
AU        0.211897    0.402247    0.636105     0.007504
AU        0.247757    0.360173    0.636044     0.007504
AU        0.248329    0.401555    0.597738     0.007504
AU        0.289694    0.358851    0.597412     0.007504
AU        0.290575    0.397251    0.635502     0.007504
AU        0.327581    0.360438    0.634679     0.007504
AU        0.328985    0.400175    0.593870     0.007504
AU        0.364483    0.358068    0.596591     0.007504
AU        0.365316    0.401828    0.633123     0.007504
AU        0.404922    0.363340    0.635324     0.007504
AU        0.404737    0.400988    0.595244     0.007504
AU        0.443312    0.358918    0.595739     0.007504
AU        0.440585    0.400653    0.632684     0.007504
AU        0.482309    0.362408    0.635047     0.007504
AU        0.482825    0.399614    0.597392     0.007504
AU        0.520718    0.360285    0.594859     0.007504
AU        0.521079    0.400459    0.636356     0.007504
AU        0.560019    0.362262    0.634246     0.007504
AU        0.559343    0.399662    0.593943     0.007504
AU        0.599776    0.360916    0.598034     0.007504
AU        0.595718    0.399065    0.636949     0.007504
AU        0.637731    0.359965    0.636776     0.007504
AU        0.638333    0.398236    0.599939     0.007504
AU        0.676332    0.359863    0.597680     0.007504
AU        0.676593    0.398620    0.638094     0.007504
AU        0.717535    0.360778    0.639177     0.007504
AU        0.715634    0.397000    0.598399     0.007504
AU        0.751105    0.360912    0.598424     0.007504
AU        0.750209    0.403625    0.640300     0.007504
NI        0.775304    0.361578    0.645224     0.004307
NI        0.792926    0.401462    0.598568     0.004307
NI        0.810115    0.360198    0.613491     0.004307
NI        0.809902    0.398478    0.645905     0.004307
NI        0.841594    0.363357    0.645606     0.004307
NI        0.840212    0.400452    0.606959     0.004307
NI        0.041564    0.441007    0.636236     0.004307
NI        0.043742    0.481710    0.601942     0.004307
NI        0.069421    0.438406    0.598728     0.004307
NI        0.073277    0.477940    0.641578     0.004307
NI        0.103573    0.439252    0.641675     0.004307
NI        0.096892    0.478018    0.598741     0.004307
AU        0.134168    0.438489    0.596788     0.007504
AU        0.135182    0.476955    0.637743     0.007504
AU        0.175970    0.441934    0.634155     0.007504
AU        0.174930    0.477754    0.596543     0.007504
AU        0.213248    0.440446    0.597936     0.007504
AU        0.213536    0.481645    0.635555     0.007504
AU        0.251445    0.438395    0.636237     0.007504
AU        0.253519    0.475570    0.595611     0.007504
AU        0.289800    0.435389    0.594241     0.007504
AU        0.290484    0.477682    0.635315     0.007504
AU        0.325254    0.438259    0.634574     0.007504
AU        0.328015    0.475963    0.596886     0.007504
AU        0.363780    0.437945    0.593190     0.007504
AU        0.367993    0.477774    0.634467     0.007504
AU        0.403929    0.437958    0.633442     0.007504
AU        0.406845    0.478533    0.597430     0.007504
AU        0.444802    0.437882    0.596053     0.007504
AU        0.445074    0.475231    0.633511     0.007504
AU        0.481339    0.437472    0.635476     0.007504
AU        0.483789    0.475466    0.598067     0.007504
AU        0.519891    0.437408    0.597725     0.007504
AU        0.522636    0.475423    0.636756     0.007504
AU        0.559875    0.437214    0.635573     0.007504
AU        0.562959    0.471484    0.596730     0.007504
AU        0.602099    0.434912    0.596373     0.007504
AU        0.598275    0.473854    0.635930     0.007504
AU        0.637591    0.436766    0.637202     0.007504
AU        0.637724    0.474859    0.598704     0.007504
AU        0.675786    0.436918    0.597980     0.007504
AU        0.677051    0.476785    0.637970     0.007504
AU        0.713301    0.438238    0.636705     0.007504
AU        0.715311    0.475768    0.597969     0.007504
AU        0.752779    0.434533    0.593227     0.007504
AU        0.756021    0.472621    0.636682     0.007504
NI        0.789210    0.438708    0.630396     0.004307
NI        0.787985    0.473386    0.599190     0.004307
NI        0.824643    0.443325    0.595829     0.004307
NI        0.811234    0.477924    0.641249     0.004307
NI        0.839838    0.437012    0.642524     0.004307
NI        0.841052    0.485843    0.605559     0.004307
NI        0.038829    0.509681    0.641640     0.004307
NI        0.045959    0.555292    0.605131     0.004307
NI        0.071275    0.516019    0.607939     0.004307
NI        0.071620    0.549742    0.644220     0.004307
NI        0.104876    0.515292    0.642067     0.004307
NI        0.101389    0.554137    0.604821     0.004307
AU        0.133513    0.513801    0.600686     0.007504
NI        0.137243    0.553856    0.637177     0.004307
AU        0.172135    0.514370    0.636347     0.007504
AU        0.174293    0.554449    0.598051     0.007504
AU        0.211898    0.516210    0.596542     0.007504
AU        0.212155    0.553353    0.635839     0.007504
AU        0.251666    0.515851    0.635476     0.007504
AU        0.252523    0.553955    0.598389     0.007504
AU        0.291771    0.516555    0.596380     0.007504
AU        0.292174    0.554287    0.637301     0.007504
AU        0.329991    0.514211    0.636128     0.007504
AU        0.329890    0.552280    0.597193     0.007504
AU        0.365830    0.513888    0.597097     0.007504
AU        0.366197    0.553935    0.634977     0.007504
AU        0.405189    0.518595    0.634823     0.007504
AU        0.405665    0.556630    0.593406     0.007504
AU        0.445126    0.513229    0.596102     0.007504
AU        0.445936    0.552707    0.633062     0.007504
AU        0.484587    0.514213    0.635910     0.007504
AU        0.482912    0.552931    0.596811     0.007504
AU        0.522224    0.512933    0.594257     0.007504
AU        0.523698    0.554670    0.634536     0.007504
AU        0.561668    0.514575    0.634819     0.007504
AU        0.560005    0.554692    0.597284     0.007504
AU        0.598316    0.514005    0.594372     0.007504
AU        0.598179    0.552723    0.635533     0.007504
AU        0.633515    0.514720    0.635022     0.007504
AU        0.636556    0.552054    0.598959     0.007504
AU        0.677088    0.514156    0.599308     0.007504
AU        0.672359    0.553129    0.634707     0.007504
AU        0.716057    0.514212    0.637520     0.007504
AU        0.715704    0.554228    0.601057     0.007504
AU        0.756725    0.514446    0.601295     0.007504
NI        0.750928    0.555781    0.639863     0.004307
NI        0.777144    0.515085    0.648108     0.004307
NI        0.787394    0.555775    0.607640     0.004307
NI        0.806227    0.515988    0.611225     0.004307
NI        0.810407    0.550277    0.647791     0.004307
NI        0.841381    0.515142    0.643484     0.004307
NI        0.837396    0.555644    0.608604     0.004307
NI        0.069936    0.601425    0.592548     0.004307
NI        0.079967    0.628823    0.630725     0.004307
NI        0.103062    0.589020    0.643837     0.004307
NI        0.105622    0.635971    0.591062     0.004307
AU        0.132447    0.595496    0.597484     0.007504
NI        0.138682    0.632346    0.630570     0.004307
AU        0.172469    0.595948    0.634723     0.007504
AU        0.173714    0.631338    0.595767     0.007504
AU        0.212349    0.592041    0.597865     0.007504
AU        0.211910    0.631208    0.635557     0.007504
AU        0.248849    0.592387    0.634890     0.007504
AU        0.250875    0.631637    0.596414     0.007504
AU        0.290499    0.593032    0.597479     0.007504
AU        0.288517    0.631180    0.634998     0.007504
AU        0.328171    0.594704    0.633752     0.007504
AU        0.328895    0.634743    0.595973     0.007504
AU        0.366734    0.591449    0.597561     0.007504
AU        0.367924    0.631506    0.635117     0.007504
AU        0.407112    0.590291    0.633317     0.007504
AU        0.404402    0.629643    0.598070     0.007504
AU        0.443393    0.592451    0.596537     0.007504
AU        0.444766    0.631454    0.634586     0.007504
AU        0.484555    0.591980    0.635358     0.007504
AU        0.482427    0.631455    0.596197     0.007504
AU        0.523176    0.592898    0.595331     0.007504
AU        0.520646    0.628854    0.636695     0.007504
AU        0.560919    0.594149    0.635617     0.007504
AU        0.559841    0.632057    0.598243     0.007504
AU        0.600534    0.591870    0.596598     0.007504
AU        0.599457    0.629749    0.635126     0.007504
AU        0.636831    0.592532    0.637449     0.007504
AU        0.639619    0.627064    0.594153     0.007504
AU        0.676479    0.590983    0.592330     0.007504
AU        0.679212    0.628366    0.636335     0.007504
AU        0.715864    0.592460    0.638403     0.007504
AU        0.713404    0.626879    0.598568     0.007504
AU        0.754589    0.593048    0.600721     0.007504
NI        0.747262    0.629947    0.636153     0.004307
NI        0.782478    0.588833    0.647097     0.004307
NI        0.784214    0.635861    0.594762     0.004307
NI        0.809751    0.594605    0.605015     0.004307
NI        0.808555    0.629199    0.637980     0.004307
NI        0.108752    0.670234    0.626534     0.004307
NI        0.111108    0.703061    0.588309     0.004307
NI        0.142375    0.669955    0.592864     0.004307
NI        0.147987    0.699599    0.629635     0.004307
NI        0.174285    0.661836    0.634103     0.004307
NI        0.179087    0.704862    0.593239     0.004307
AU        0.213085    0.668802    0.597746     0.007504
NI        0.215275    0.706634    0.632700     0.004307
AU        0.250379    0.670526    0.635240     0.007504
AU        0.252537    0.708819    0.595167     0.007504
AU        0.288984    0.669190    0.594947     0.007504
AU        0.290682    0.706189    0.634741     0.007504
AU        0.329072    0.670399    0.636345     0.007504
AU        0.329279    0.709526    0.598430     0.007504
AU        0.367801    0.670475    0.594590     0.007504
AU        0.365706    0.708033    0.636135     0.007504
AU        0.404835    0.671601    0.632942     0.007504
AU        0.406100    0.710298    0.596553     0.007504
AU        0.443684    0.668770    0.596429     0.007504
AU        0.445102    0.712121    0.634289     0.007504
AU        0.484550    0.671053    0.634907     0.007504
AU        0.482015    0.705047    0.596119     0.007504
AU        0.521073    0.668491    0.597182     0.007504
AU        0.521317    0.708336    0.634452     0.007504
AU        0.560813    0.669522    0.637400     0.007504
AU        0.561275    0.707371    0.598872     0.007504
AU        0.599456    0.669214    0.600180     0.007504
AU        0.600339    0.705712    0.637251     0.007504
AU        0.639638    0.667206    0.637186     0.007504
AU        0.639339    0.707071    0.597105     0.007504
AU        0.677742    0.667590    0.597594     0.007504
NI        0.675173    0.703708    0.633580     0.004307
NI        0.711754    0.663894    0.636112     0.004307
NI        0.709143    0.707225    0.595796     0.004307
NI        0.746411    0.662255    0.601881     0.004307
NI        0.743117    0.699142    0.634053     0.004307
NI        0.778700    0.667138    0.635945     0.004307
NI        0.773256    0.703741    0.596405     0.004307
NI        0.144760    0.735561    0.591139     0.004307
NI        0.181298    0.738004    0.628758     0.004307
NI        0.179415    0.770542    0.594150     0.004307
NI        0.216199    0.741410    0.595709     0.004307
NI        0.218179    0.765874    0.632917     0.004307
NI        0.253415    0.738328    0.636273     0.004307
NI        0.246079    0.778917    0.588123     0.004307
AU        0.289346    0.750613    0.601765     0.007504
NI        0.297585    0.779278    0.645412     0.004307
NI        0.327837    0.744468    0.637639     0.004307
NI        0.329515    0.785948    0.607459     0.004307
AU        0.365484    0.748514    0.597267     0.007504
NI        0.367682    0.777934    0.641680     0.004307
AU        0.406413    0.747121    0.633430     0.007504
NI        0.406817    0.780414    0.596387     0.004307
AU        0.447581    0.748358    0.595216     0.007504
NI        0.446512    0.783867    0.633613     0.004307
AU        0.481592    0.747564    0.635870     0.007504
NI        0.482698    0.785549    0.597490     0.004307
AU        0.522568    0.743631    0.597352     0.007504
NI        0.522578    0.774482    0.637279     0.004307
NI        0.560258    0.740258    0.639497     0.004307
NI        0.561037    0.776557    0.610639     0.004307
AU        0.600994    0.746829    0.598948     0.007504
NI        0.596077    0.773274    0.642560     0.004307
NI        0.637565    0.739136    0.637268     0.004307
NI        0.642831    0.775155    0.594663     0.004307
NI        0.674537    0.741233    0.596693     0.004307
NI        0.672755    0.769139    0.634189     0.004307
NI        0.709243    0.738070    0.632712     0.004307
NI        0.710917    0.772026    0.594409     0.004307
NI        0.744422    0.738418    0.593835     0.004307
NI        0.255564    0.795884    0.631459     0.004307
NI        0.288035    0.804195    0.600097     0.004307
NI        0.336186    0.814142    0.641702     0.004307
NI        0.326787    0.836820    0.600318     0.004307
NI        0.369269    0.811717    0.607509     0.004307
NI        0.374408    0.844645    0.639646     0.004307
NI        0.404854    0.806193    0.637842     0.004307
NI        0.407901    0.838373    0.604591     0.004307
NI        0.447234    0.815068    0.594922     0.004307
NI        0.444044    0.834396    0.635709     0.004307
NI        0.485700    0.806290    0.639977     0.004307
NI        0.487223    0.839592    0.606892     0.004307
NI        0.522727    0.809740    0.608239     0.004307
NI        0.522290    0.843182    0.640734     0.004307
NI        0.557721    0.805584    0.646938     0.004307
NI        0.559522    0.836882    0.608653     0.004307
NI        0.600749    0.800355    0.602346     0.004307
NI        0.636370    0.798525    0.635129     0.004307
NI        0.255178    0.105763    0.675693     0.004307
NI        0.291640    0.105635    0.710957     0.004307
NI        0.329122    0.104327    0.678260     0.004307
NI        0.369319    0.072468    0.675900     0.004307
NI        0.371626    0.102416    0.710768     0.004307
NI        0.405922    0.067551    0.708868     0.004307
NI        0.410350    0.101265    0.677658     0.004307
NI        0.447155    0.070001    0.678043     0.004307
NI        0.444527    0.104816    0.712465     0.004307
NI        0.483786    0.070812    0.710994     0.004307
NI        0.479731    0.102576    0.676050     0.004307
NI        0.520601    0.073579    0.676673     0.004307
NI        0.519297    0.106411    0.711954     0.004307
NI        0.557138    0.105684    0.676021     0.004307
NI        0.596093    0.108521    0.706084     0.004307
NI        0.633652    0.107836    0.669244     0.004307
NI        0.178060    0.171331    0.669589     0.004307
NI        0.216939    0.138155    0.672755     0.004307
NI        0.219620    0.174114    0.707660     0.004307
NI        0.256939    0.138868    0.710435     0.004307
NI        0.253387    0.169679    0.673199     0.004307
NI        0.291089    0.136898    0.677116     0.004307
NI        0.290258    0.173308    0.713941     0.004307
NI        0.333452    0.135442    0.717191     0.004307
AU        0.329492    0.167093    0.678360     0.007504
NI        0.367887    0.133266    0.677870     0.004307
NI        0.367294    0.169177    0.713480     0.004307
NI        0.409159    0.135622    0.712959     0.004307
AU        0.405307    0.168751    0.675261     0.007504
NI        0.445015    0.134065    0.676087     0.004307
NI        0.443208    0.171253    0.712196     0.004307
NI        0.481404    0.136620    0.712920     0.004307
AU        0.482029    0.167765    0.674566     0.007504
NI        0.520930    0.135865    0.676945     0.004307
NI        0.520880    0.170734    0.711104     0.004307
NI        0.559111    0.137061    0.713025     0.004307
AU        0.557690    0.170398    0.676877     0.007504
NI        0.598149    0.140579    0.674442     0.004307
NI        0.598002    0.171456    0.710761     0.004307
NI        0.635382    0.140145    0.707409     0.004307
NI        0.636787    0.170649    0.672708     0.004307
NI        0.676241    0.141602    0.667328     0.004307
NI        0.670704    0.173665    0.706269     0.004307
NI        0.709485    0.172201    0.669595     0.004307
NI        0.111672    0.245986    0.670851     0.004307
NI        0.144175    0.210461    0.669862     0.004307
NI        0.143005    0.248325    0.706627     0.004307
NI        0.180118    0.211379    0.705888     0.004307
NI        0.176277    0.247234    0.672310     0.004307
NI        0.213254    0.206090    0.672960     0.004307
NI        0.211555    0.245765    0.710984     0.004307
NI        0.254360    0.209797    0.713995     0.004307
AU        0.249662    0.247036    0.674975     0.007504
AU        0.290802    0.205924    0.676019     0.007504
AU        0.291575    0.247523    0.712279     0.007504
AU        0.330686    0.208823    0.715356     0.007504
AU        0.331019    0.246738    0.676107     0.007504
AU        0.365569    0.206876    0.677534     0.007504
AU        0.368758    0.245015    0.715198     0.007504
AU        0.407215    0.207688    0.712791     0.007504
AU        0.404885    0.245218    0.675939     0.007504
AU        0.442232    0.208109    0.673402     0.007504
AU        0.442760    0.246325    0.714983     0.007504
AU        0.481829    0.206503    0.709626     0.007504
AU        0.481457    0.246930    0.673744     0.007504
AU        0.519712    0.208668    0.673914     0.007504
AU        0.517945    0.244178    0.714024     0.007504
AU        0.559218    0.204970    0.714028     0.007504
AU        0.559155    0.245202    0.675714     0.007504
AU        0.598130    0.205525    0.674413     0.007504
AU        0.597161    0.246171    0.713853     0.007504
NI        0.635898    0.211794    0.709314     0.004307
AU        0.638403    0.246331    0.673893     0.007504
NI        0.677150    0.209859    0.672388     0.004307
NI        0.671898    0.246051    0.711878     0.004307
NI        0.703530    0.211479    0.708050     0.004307
NI        0.710087    0.247242    0.673089     0.004307
NI        0.739449    0.210295    0.672788     0.004307
NI        0.741724    0.246195    0.707357     0.004307
NI        0.778946    0.241662    0.672256     0.004307
NI        0.103652    0.288519    0.704839     0.004307
NI        0.103755    0.335054    0.673620     0.004307
NI        0.135269    0.287508    0.669743     0.004307
NI        0.136277    0.330081    0.708106     0.004307
NI        0.175904    0.281483    0.707162     0.004307
AU        0.171003    0.323651    0.673744     0.007504
AU        0.210303    0.283281    0.671606     0.007504
AU        0.209801    0.322256    0.711776     0.007504
AU        0.248350    0.283965    0.714625     0.007504
AU        0.250820    0.320680    0.675926     0.007504
AU        0.290345    0.283555    0.675274     0.007504
AU        0.287565    0.321324    0.719141     0.007504
AU        0.327946    0.286515    0.717401     0.007504
AU        0.328286    0.325786    0.679041     0.007504
AU        0.364698    0.286721    0.677121     0.007504
AU        0.362925    0.326906    0.716950     0.007504
AU        0.404681    0.285773    0.714227     0.007504
AU        0.405345    0.323827    0.674008     0.007504
AU        0.440974    0.285609    0.674557     0.007504
AU        0.443526    0.325445    0.711982     0.007504
AU        0.482624    0.283704    0.712536     0.007504
AU        0.481534    0.321079    0.673697     0.007504
AU        0.523050    0.284284    0.676056     0.007504
AU        0.521782    0.322210    0.714724     0.007504
AU        0.560750    0.283788    0.719157     0.007504
AU        0.560533    0.323455    0.674814     0.007504
AU        0.598825    0.284281    0.676234     0.007504
AU        0.597791    0.323645    0.715202     0.007504
AU        0.636754    0.282805    0.713763     0.007504
AU        0.636982    0.322055    0.676326     0.007504
AU        0.673931    0.281938    0.678300     0.007504
AU        0.679320    0.319753    0.717475     0.007504
NI        0.708260    0.277379    0.712157     0.004307
AU        0.715348    0.322662    0.679085     0.007504
NI        0.745353    0.280191    0.675014     0.004307
NI        0.747950    0.324739    0.719171     0.004307
NI        0.774493    0.281808    0.711897     0.004307
NI        0.775100    0.327248    0.678022     0.004307
NI        0.070546    0.371178    0.670178     0.004307
NI        0.069032    0.405193    0.706153     0.004307
NI        0.102893    0.369172    0.706416     0.004307
NI        0.103339    0.404150    0.673307     0.004307
NI        0.137757    0.365683    0.677656     0.004307
NI        0.138305    0.405092    0.707846     0.004307
NI        0.170236    0.364895    0.711637     0.004307
AU        0.173001    0.404942    0.672981     0.007504
AU        0.209561    0.362456    0.676101     0.007504
AU        0.210686    0.401418    0.712961     0.007504
AU        0.249142    0.360079    0.713881     0.007504
AU        0.251486    0.399039    0.674370     0.007504
AU        0.288866    0.360388    0.674753     0.007504
AU        0.286274    0.400105    0.713132     0.007504
AU        0.325766    0.364039    0.713215     0.007504
AU        0.326447    0.397941    0.673807     0.007504
AU        0.366230    0.360987    0.676387     0.007504
AU        0.366281    0.400472    0.713346     0.007504
AU        0.404426    0.362112    0.712859     0.007504
AU        0.402958    0.401105    0.672738     0.007504
AU        0.441230    0.363530    0.674523     0.007504
AU        0.442999    0.401500    0.712098     0.007504
AU        0.480798    0.363208    0.712108     0.007504
AU        0.483196    0.401270    0.675905     0.007504
AU        0.522134    0.362627    0.676322     0.007504
AU        0.522805    0.400541    0.714239     0.007504
AU        0.562294    0.361272    0.714594     0.007504
AU        0.560565    0.398638    0.674815     0.007504
AU        0.599265    0.360221    0.675429     0.007504
AU        0.598299    0.399351    0.716474     0.007504
AU        0.636853    0.358318    0.716031     0.007504
AU        0.636126    0.400639    0.676090     0.007504
AU        0.675143    0.362681    0.677141     0.007504
AU        0.673803    0.400780    0.716306     0.007504
NI        0.711901    0.362091    0.715133     0.004307
AU        0.713842    0.402221    0.677821     0.007504
NI        0.746115    0.362956    0.682454     0.004307
NI        0.746528    0.400486    0.713615     0.004307
NI        0.777192    0.365902    0.716856     0.004307
NI        0.777197    0.400115    0.680535     0.004307
NI        0.806077    0.361692    0.680667     0.004307
NI        0.811787    0.404457    0.716252     0.004307
NI        0.070883    0.442519    0.673102     0.004307
NI        0.070942    0.475097    0.709570     0.004307
NI        0.104149    0.438058    0.710344     0.004307
NI        0.104204    0.475875    0.675646     0.004307
NI        0.134009    0.438810    0.675723     0.004307
NI        0.139222    0.471762    0.712324     0.004307
NI        0.172081    0.436396    0.710729     0.004307
AU        0.174818    0.474204    0.676157     0.007504
AU        0.215319    0.441229    0.673690     0.007504
AU        0.213791    0.476982    0.712686     0.007504
AU        0.252678    0.439539    0.712059     0.007504
AU        0.250680    0.480025    0.675497     0.007504
AU        0.290085    0.439242    0.674245     0.007504
AU        0.291535    0.477079    0.712625     0.007504
AU        0.328667    0.438050    0.714780     0.007504
AU        0.329491    0.477388    0.674312     0.007504
AU        0.366709    0.437037    0.673044     0.007504
AU        0.367050    0.480071    0.712235     0.007504
AU        0.406009    0.437780    0.711731     0.007504
AU        0.407235    0.476260    0.673910     0.007504
AU        0.443715    0.439203    0.673007     0.007504
AU        0.444806    0.476331    0.713803     0.007504
AU        0.483425    0.439562    0.715025     0.007504
AU        0.485534    0.476828    0.673219     0.007504
AU        0.523671    0.438752    0.674561     0.007504
AU        0.522656    0.476565    0.713027     0.007504
AU        0.559905    0.438318    0.716335     0.007504
AU        0.560216    0.479081    0.672548     0.007504
AU        0.597105    0.438672    0.676410     0.007504
AU        0.598426    0.477084    0.714741     0.007504
AU        0.635086    0.438476    0.715773     0.007504
AU        0.634921    0.476790    0.674288     0.007504
AU        0.672880    0.439248    0.676700     0.007504
AU        0.674713    0.475102    0.715868     0.007504
NI        0.708533    0.439176    0.716523     0.004307
AU        0.710772    0.478475    0.678597     0.007504
NI        0.747856    0.437119    0.680806     0.004307
NI        0.744002    0.476455    0.717884     0.004307
NI        0.777413    0.437544    0.715618     0.004307
NI        0.774681    0.475959    0.682863     0.004307
NI        0.807102    0.437062    0.676100     0.004307
NI        0.811998    0.476106    0.709731     0.004307
NI        0.070356    0.512248    0.675905     0.004307
NI        0.104532    0.510099    0.709152     0.004307
NI        0.104352    0.547132    0.676944     0.004307
NI        0.138735    0.512048    0.678698     0.004307
NI        0.138613    0.547540    0.712023     0.004307
NI        0.173744    0.514441    0.710883     0.004307
AU        0.172219    0.552743    0.673629     0.007504
AU        0.210089    0.514365    0.673022     0.007504
AU        0.209519    0.553495    0.712848     0.007504
AU        0.249602    0.515060    0.714612     0.007504
AU        0.248728    0.553645    0.674970     0.007504
AU        0.289333    0.515338    0.674284     0.007504
AU        0.290782    0.555159    0.711493     0.007504
AU        0.327927    0.517224    0.712672     0.007504
AU        0.330421    0.554540    0.672457     0.007504
AU        0.368342    0.517155    0.674041     0.007504
AU        0.371222    0.555899    0.712167     0.007504
AU        0.405746    0.516973    0.711521     0.007504
AU        0.406918    0.553801    0.671416     0.007504
AU        0.444572    0.516537    0.673908     0.007504
AU        0.445140    0.553902    0.710373     0.007504
AU        0.482849    0.515013    0.712815     0.007504
AU        0.482803    0.553311    0.671662     0.007504
AU        0.521570    0.515602    0.673035     0.007504
AU        0.521206    0.555043    0.710241     0.007504
AU        0.559370    0.515593    0.714497     0.007504
AU        0.558859    0.552250    0.676132     0.007504
AU        0.598684    0.515655    0.676944     0.007504
AU        0.599381    0.554758    0.713541     0.007504
AU        0.638974    0.515059    0.717592     0.007504
AU        0.634799    0.554355    0.673361     0.007504
AU        0.672986    0.518208    0.675063     0.007504
AU        0.680532    0.553638    0.715974     0.007504
NI        0.712141    0.517970    0.717537     0.004307
AU        0.713172    0.552030    0.676497     0.007504
NI        0.745428    0.511748    0.684354     0.004307
NI        0.747194    0.550812    0.716060     0.004307
NI        0.776076    0.509413    0.717353     0.004307
NI        0.777066    0.550980    0.682848     0.004307
NI        0.811246    0.510611    0.680314     0.004307
NI        0.108784    0.588976    0.708337     0.004307
NI        0.109409    0.629612    0.668571     0.004307
NI        0.139429    0.592069    0.673680     0.004307
NI        0.144153    0.631672    0.703116     0.004307
NI        0.176865    0.594457    0.704159     0.004307
NI        0.176119    0.630353    0.670370     0.004307
AU        0.213229    0.593770    0.672939     0.007504
NI        0.211798    0.633241    0.706972     0.004307
AU        0.249606    0.594334    0.710478     0.007504
AU        0.249419    0.635025    0.672454     0.007504
AU        0.289816    0.594184    0.672448     0.007504
AU        0.291463    0.632450    0.709731     0.007504
AU        0.331982    0.593945    0.710961     0.007504
AU        0.330872    0.628702    0.673823     0.007504
AU        0.368845    0.591167    0.670751     0.007504
AU        0.367595    0.632862    0.719767     0.007504
AU        0.410492    0.595244    0.711834     0.007504
AU        0.406120    0.632898    0.676307     0.007504
AU        0.443660    0.594271    0.670596     0.007504
AU        0.446346    0.633681    0.711124     0.007504
AU        0.482133    0.595452    0.710708     0.007504
AU        0.484328    0.631387    0.673277     0.007504
AU        0.521936    0.592728    0.675822     0.007504
AU        0.523384    0.631390    0.715016     0.007504
AU        0.562762    0.592260    0.716666     0.007504
AU        0.559970    0.631062    0.674924     0.007504
AU        0.598629    0.592316    0.674959     0.007504
AU        0.600432    0.629589    0.714601     0.007504
AU        0.637783    0.591659    0.710273     0.007504
AU        0.638948    0.627635    0.673242     0.007504
AU        0.676923    0.590989    0.675021     0.007504
NI        0.675215    0.630892    0.707543     0.004307
NI        0.708553    0.596023    0.708054     0.004307
NI        0.715126    0.628959    0.674451     0.004307
NI        0.745592    0.591460    0.677666     0.004307
NI        0.746277    0.626394    0.711128     0.004307
NI        0.775714    0.588306    0.712299     0.004307
NI        0.776145    0.628641    0.672604     0.004307
NI        0.141852    0.665933    0.665085     0.004307
NI        0.178322    0.668104    0.701963     0.004307
NI        0.179378    0.704612    0.667294     0.004307
NI        0.211431    0.667206    0.669369     0.004307
NI        0.213155    0.703043    0.702304     0.004307
NI        0.248428    0.670084    0.708604     0.004307
NI        0.250337    0.704995    0.671347     0.004307
AU        0.291768    0.669766    0.673500     0.007504
NI        0.287565    0.706020    0.706927     0.004307
AU        0.331135    0.672565    0.714447     0.007504
AU        0.331824    0.709971    0.673901     0.007504
AU        0.367339    0.667660    0.675126     0.007504
NI        0.371922    0.709513    0.709279     0.004307
AU        0.405625    0.670614    0.712959     0.007504
AU        0.406285    0.706150    0.672587     0.007504
AU        0.445616    0.670759    0.673116     0.007504
NI        0.444756    0.704824    0.711301     0.004307
AU        0.484784    0.671529    0.709447     0.007504
AU        0.483795    0.708628    0.674202     0.007504
AU        0.522675    0.669083    0.672228     0.007504
NI        0.519858    0.707127    0.711281     0.004307
AU        0.560463    0.670776    0.711700     0.007504
AU        0.562471    0.707053    0.674549     0.007504
AU        0.602375    0.666466    0.673655     0.007504
NI        0.595062    0.705736    0.710026     0.004307
NI        0.638485    0.663763    0.708619     0.004307
NI        0.637687    0.702773    0.672411     0.004307
NI        0.672394    0.664296    0.673919     0.004307
NI        0.671471    0.698610    0.705621     0.004307
NI        0.710857    0.663771    0.703729     0.004307
NI        0.706976    0.697190    0.670014     0.004307
NI        0.745042    0.665410    0.667698     0.004307
NI        0.216342    0.736932    0.670088     0.004307
NI        0.251551    0.738971    0.704568     0.004307
NI        0.256603    0.773706    0.671164     0.004307
NI        0.288791    0.738192    0.671994     0.004307
NI        0.293076    0.772303    0.701021     0.004307
NI        0.330516    0.743956    0.713243     0.004307
NI        0.334405    0.775798    0.675669     0.004307
NI        0.369959    0.742206    0.673443     0.004307
NI        0.372478    0.775538    0.707871     0.004307
NI        0.407493    0.740836    0.711543     0.004307
NI        0.405436    0.774482    0.674165     0.004307
NI        0.445539    0.744985    0.672996     0.004307
NI        0.442808    0.774056    0.711645     0.004307
NI        0.479874    0.741750    0.711040     0.004307
NI        0.483185    0.775357    0.675735     0.004307
NI        0.522184    0.741026    0.670402     0.004307
NI        0.517284    0.769816    0.708035     0.004307
NI        0.557118    0.741948    0.713915     0.004307
NI        0.558728    0.769573    0.675252     0.004307
NI        0.600347    0.740030    0.676517     0.004307
NI        0.598129    0.772613    0.707766     0.004307
NI        0.635204    0.736668    0.706307     0.004307
NI        0.639455    0.772125    0.674315     0.004307
NI        0.673183    0.731664    0.669142     0.004307
NI        0.372597    0.810341    0.676400     0.004307
NI        0.407249    0.807466    0.712725     0.004307
NI        0.444341    0.805860    0.677604     0.004307
NI        0.486529    0.808889    0.708140     0.004307
NI        0.518538    0.807510    0.672914     0.004307
NI        0.409179    0.101438    0.743431     0.004307
NI        0.482162    0.104140    0.745384     0.004307
NI        0.253978    0.173876    0.744589     0.004307
NI        0.296483    0.138238    0.744527     0.004307
NI        0.296549    0.174048    0.775600     0.004307
NI        0.335722    0.169050    0.748181     0.004307
NI        0.371533    0.135398    0.747493     0.004307
NI        0.372429    0.171312    0.778359     0.004307
NI        0.409532    0.135324    0.779300     0.004307
NI        0.407743    0.169902    0.745470     0.004307
NI        0.446031    0.136485    0.744424     0.004307
NI        0.444170    0.170084    0.776753     0.004307
NI        0.482595    0.138912    0.779030     0.004307
NI        0.479961    0.171706    0.743328     0.004307
NI        0.517723    0.138455    0.745720     0.004307
NI        0.519859    0.172545    0.780187     0.004307
NI        0.557674    0.168008    0.748397     0.004307
NI        0.597371    0.141315    0.744623     0.004307
NI        0.598777    0.175390    0.776245     0.004307
NI        0.633704    0.175671    0.742464     0.004307
NI        0.175860    0.248909    0.741232     0.004307
NI        0.218128    0.212558    0.739890     0.004307
NI        0.216870    0.245002    0.772741     0.004307
NI        0.256856    0.209584    0.775660     0.004307
NI        0.252365    0.243995    0.744745     0.004307
NI        0.287989    0.210445    0.745683     0.004307
NI        0.295451    0.239321    0.784325     0.004307
NI        0.334525    0.206118    0.777736     0.004307
NI        0.326582    0.245838    0.749896     0.004307
NI        0.369039    0.205228    0.746489     0.004307
NI        0.365278    0.241372    0.775878     0.004307
NI        0.408459    0.206475    0.775128     0.004307
AU        0.405466    0.249150    0.752389     0.007504
NI        0.447499    0.205590    0.748400     0.004307
NI        0.443912    0.250753    0.783973     0.004307
NI        0.485752    0.205234    0.777683     0.004307
AU        0.479929    0.245719    0.753554     0.007504
NI        0.521086    0.201684    0.745047     0.004307
NI        0.524067    0.236208    0.777610     0.004307
NI        0.561655    0.207358    0.778276     0.004307
NI        0.559128    0.240922    0.746298     0.004307
NI        0.599017    0.207721    0.744205     0.004307
NI        0.595419    0.240308    0.777514     0.004307
NI        0.633950    0.209912    0.779096     0.004307
NI        0.635754    0.244148    0.746235     0.004307
NI        0.667008    0.210858    0.744812     0.004307
NI        0.671255    0.247351    0.778746     0.004307
NI        0.707094    0.245524    0.745869     0.004307
NI        0.139781    0.289492    0.735090     0.004307
NI        0.172627    0.291099    0.774564     0.004307
NI        0.171872    0.325745    0.742126     0.004307
NI        0.208133    0.281172    0.744466     0.004307
NI        0.207121    0.323158    0.772953     0.004307
NI        0.244603    0.284746    0.775195     0.004307
NI        0.245837    0.320302    0.746057     0.004307
AU        0.288374    0.280183    0.755936     0.007504
NI        0.280211    0.322968    0.777793     0.004307
NI        0.327952    0.277551    0.786747     0.004307
AU        0.326449    0.322261    0.758508     0.007504
AU        0.366524    0.285692    0.753313     0.007504
AU        0.365398    0.324390    0.791912     0.007504
NI        0.406745    0.285435    0.788702     0.004307
AU        0.403815    0.324340    0.752089     0.007504
AU        0.443097    0.288070    0.751360     0.007504
AU        0.441145    0.324708    0.788877     0.007504
NI        0.479344    0.290888    0.786322     0.004307
AU        0.480997    0.324792    0.748876     0.007504
AU        0.522462    0.281242    0.754718     0.007504
AU        0.517442    0.324161    0.787997     0.007504
NI        0.563567    0.277525    0.783672     0.004307
AU        0.561113    0.322169    0.758294     0.007504
AU        0.602980    0.282069    0.750939     0.007504
NI        0.606353    0.321740    0.785129     0.004307
NI        0.638158    0.283041    0.782305     0.004307
NI        0.639581    0.320207    0.750859     0.004307
NI        0.672771    0.282668    0.748087     0.004307
NI        0.674309    0.321914    0.781543     0.004307
NI        0.707099    0.281959    0.779788     0.004307
NI        0.715528    0.326392    0.754819     0.004307
NI        0.739270    0.282162    0.745092     0.004307
NI        0.101070    0.402505    0.741374     0.004307
NI        0.135928    0.365077    0.739937     0.004307
NI        0.138803    0.403612    0.775813     0.004307
NI        0.172723    0.363570    0.774353     0.004307
NI        0.172205    0.402142    0.743654     0.004307
NI        0.208308    0.360556    0.743045     0.004307
NI        0.207303    0.397821    0.772851     0.004307
NI        0.241230    0.357944    0.773429     0.004307
AU        0.249902    0.402049    0.751827     0.007504
AU        0.289015    0.365712    0.754729     0.007504
NI        0.290144    0.400529    0.788663     0.004307
AU        0.326893    0.367325    0.793119     0.007504
AU        0.326959    0.402562    0.753264     0.007504
AU        0.365862    0.362308    0.755200     0.007504
AU        0.366267    0.400418    0.792772     0.007504
AU        0.403502    0.363943    0.795143     0.007504
AU        0.404009    0.399818    0.753075     0.007504
AU        0.441389    0.363855    0.751626     0.007504
AU        0.443281    0.401288    0.789515     0.007504
AU        0.479643    0.360855    0.790100     0.007504
AU        0.480305    0.399444    0.752425     0.007504
AU        0.521234    0.359454    0.751094     0.007504
AU        0.518916    0.397641    0.786988     0.007504
AU        0.556428    0.362391    0.794539     0.007504
AU        0.559449    0.398895    0.755632     0.007504
AU        0.599519    0.362125    0.753749     0.007504
NI        0.593830    0.404438    0.792797     0.004307
NI        0.641514    0.355628    0.781005     0.004307
AU        0.637514    0.401062    0.752408     0.007504
NI        0.677721    0.359768    0.746896     0.004307
NI        0.679335    0.399062    0.781613     0.004307
NI        0.709370    0.363624    0.780717     0.004307
NI        0.712296    0.399308    0.746768     0.004307
NI        0.744661    0.364716    0.749759     0.004307
NI        0.741304    0.402135    0.781403     0.004307
NI        0.777221    0.402478    0.748739     0.004307
NI        0.105665    0.475348    0.743308     0.004307
NI        0.136944    0.437236    0.744303     0.004307
NI        0.140748    0.473930    0.775839     0.004307
NI        0.174232    0.437586    0.775586     0.004307
NI        0.173511    0.471814    0.742427     0.004307
NI        0.215477    0.440109    0.753048     0.004307
NI        0.209386    0.480330    0.774004     0.004307
NI        0.257796    0.437335    0.785977     0.004307
AU        0.253531    0.477013    0.751205     0.007504
AU        0.290839    0.439720    0.751635     0.007504
NI        0.295069    0.478788    0.790041     0.004307
AU        0.330102    0.438603    0.790193     0.007504
AU        0.327523    0.477640    0.751128     0.007504
AU        0.366322    0.439435    0.751037     0.007504
AU        0.367231    0.478424    0.792054     0.007504
AU        0.404451    0.439841    0.791408     0.007504
AU        0.402855    0.478320    0.752002     0.007504
AU        0.444535    0.439434    0.753165     0.007504
AU        0.442661    0.479366    0.789156     0.007504
AU        0.481782    0.440998    0.790617     0.007504
AU        0.484615    0.477691    0.752669     0.007504
AU        0.519973    0.437152    0.753169     0.007504
AU        0.521201    0.477931    0.795516     0.007504
AU        0.557885    0.438569    0.790154     0.007504
AU        0.559449    0.477154    0.753960     0.007504
AU        0.598796    0.436711    0.754785     0.007504
NI        0.596669    0.474987    0.788823     0.004307
NI        0.636540    0.437390    0.786325     0.004307
AU        0.636477    0.474594    0.753659     0.007504
NI        0.671893    0.436092    0.750802     0.004307
NI        0.673453    0.473151    0.782868     0.004307
NI        0.707164    0.437129    0.779359     0.004307
NI        0.707896    0.472399    0.750865     0.004307
NI        0.744015    0.439044    0.749717     0.004307
NI        0.741233    0.471344    0.783837     0.004307
NI        0.776727    0.473442    0.749403     0.004307
NI        0.139608    0.509557    0.742179     0.004307
NI        0.173402    0.511447    0.775390     0.004307
NI        0.174280    0.551531    0.748741     0.004307
NI        0.210839    0.516283    0.745421     0.004307
NI        0.211889    0.555438    0.778013     0.004307
NI        0.245604    0.522635    0.778004     0.004307
NI        0.248954    0.556010    0.745051     0.004307
AU        0.289812    0.517718    0.749699     0.007504
NI        0.282442    0.558012    0.777067     0.004307
AU        0.328974    0.518309    0.789075     0.007504
AU        0.326683    0.559568    0.751998     0.007504
AU        0.364815    0.518040    0.750913     0.007504
AU        0.367181    0.555266    0.791399     0.007504
AU        0.403686    0.518314    0.790195     0.007504
AU        0.408178    0.554789    0.750939     0.007504
AU        0.442919    0.515762    0.751590     0.007504
AU        0.445095    0.551847    0.789231     0.007504
AU        0.482293    0.516095    0.790037     0.007504
AU        0.480222    0.550834    0.748502     0.007504
AU        0.524974    0.515325    0.752561     0.007504
AU        0.516795    0.555769    0.786077     0.007504
AU        0.559531    0.515476    0.794100     0.007504
AU        0.559446    0.555169    0.756795     0.007504
AU        0.598857    0.516950    0.754866     0.007504
NI        0.603967    0.550922    0.788098     0.004307
NI        0.637328    0.510677    0.787919     0.004307
NI        0.638437    0.553812    0.749507     0.004307
NI        0.674349    0.510241    0.753204     0.004307
NI        0.677815    0.544301    0.784505     0.004307
NI        0.709836    0.505797    0.785501     0.004307
NI        0.713441    0.553500    0.752360     0.004307
NI        0.744121    0.508473    0.752396     0.004307
NI        0.146280    0.588708    0.738678     0.004307
NI        0.175902    0.588505    0.780192     0.004307
NI        0.177831    0.628879    0.738764     0.004307
NI        0.209085    0.592328    0.745422     0.004307
NI        0.213356    0.632986    0.771810     0.004307
NI        0.244718    0.589999    0.775192     0.004307
NI        0.253251    0.634590    0.745542     0.004307
AU        0.287562    0.595746    0.748250     0.007504
NI        0.290379    0.642953    0.777435     0.004307
NI        0.328056    0.600256    0.779500     0.004307
NI        0.326502    0.633999    0.746602     0.004307
AU        0.369950    0.591310    0.752604     0.007504
NI        0.365535    0.638053    0.773767     0.004307
NI        0.411252    0.591658    0.789042     0.004307
AU        0.408571    0.631957    0.751391     0.007504
AU        0.446717    0.593109    0.752326     0.007504
NI        0.446400    0.626479    0.786503     0.004307
NI        0.480036    0.591060    0.791571     0.004307
AU        0.483364    0.630567    0.750249     0.007504
AU        0.520857    0.592970    0.751127     0.007504
NI        0.525550    0.638767    0.775169     0.004307
NI        0.563763    0.602085    0.782345     0.004307
NI        0.561514    0.635003    0.745604     0.004307
AU        0.605316    0.588780    0.754359     0.007504
NI        0.596549    0.633286    0.778229     0.004307
NI        0.644888    0.580453    0.784224     0.004307
NI        0.639676    0.631760    0.745368     0.004307
NI        0.672778    0.596327    0.746648     0.004307
NI        0.675590    0.629677    0.780214     0.004307
NI        0.707394    0.589973    0.779602     0.004307
NI        0.708995    0.628544    0.742102     0.004307
NI        0.738730    0.589611    0.741713     0.004307
NI        0.212679    0.668407    0.738395     0.004307
NI        0.250473    0.670745    0.774584     0.004307
NI        0.253041    0.703942    0.739933     0.004307
NI        0.285824    0.671704    0.740612     0.004307
NI        0.286132    0.704649    0.773286     0.004307
NI        0.329864    0.672538    0.772013     0.004307
NI        0.330395    0.713012    0.748077     0.004307
NI        0.368786    0.679313    0.746171     0.004307
NI        0.371069    0.706806    0.781340     0.004307
NI        0.403982    0.672746    0.778552     0.004307
NI        0.408549    0.705953    0.746803     0.004307
NI        0.447238    0.668299    0.749388     0.004307
NI        0.447913    0.704661    0.777666     0.004307
NI        0.483995    0.670308    0.778676     0.004307
NI        0.483379    0.705062    0.742918     0.004307
NI        0.522398    0.674064    0.744557     0.004307
NI        0.516805    0.705128    0.776411     0.004307
NI        0.561453    0.671278    0.775881     0.004307
NI        0.556660    0.709891    0.746499     0.004307
NI        0.598308    0.667905    0.747748     0.004307
NI        0.596645    0.701860    0.778914     0.004307
NI        0.637494    0.667022    0.777289     0.004307
NI        0.632345    0.702601    0.742116     0.004307
NI        0.671895    0.666504    0.741123     0.004307
NI        0.288227    0.737916    0.740132     0.004307
NI        0.369415    0.743045    0.743106     0.004307
NI        0.407665    0.738809    0.780638     0.004307
NI        0.407923    0.773122    0.743978     0.004307
NI        0.444728    0.737473    0.744036     0.004307
NI        0.481783    0.739630    0.772422     0.004307
NI        0.476643    0.776712    0.743133     0.004307
NI        0.518620    0.741211    0.744461     0.004307
NI        0.596965    0.740245    0.744340     0.004307
NI        0.410416    0.173866    0.808808     0.004307
NI        0.476720    0.175057    0.811986     0.004307
NI        0.254254    0.247998    0.806275     0.004307
NI        0.334073    0.242050    0.812154     0.004307
NI        0.373397    0.205913    0.806628     0.004307
NI        0.373582    0.241815    0.840154     0.004307
NI        0.404645    0.241986    0.805855     0.004307
NI        0.446101    0.209169    0.806309     0.004307
NI        0.442835    0.242648    0.838969     0.004307
NI        0.485817    0.244980    0.809760     0.004307
NI        0.515860    0.205978    0.811712     0.004307
NI        0.523292    0.244121    0.843794     0.004307
NI        0.559437    0.236859    0.810698     0.004307
NI        0.635369    0.244528    0.809468     0.004307
NI        0.244546    0.323070    0.803640     0.004307
NI        0.284796    0.283383    0.801280     0.004307
NI        0.279652    0.317240    0.838134     0.004307
NI        0.321643    0.283187    0.836036     0.004307
NI        0.317219    0.321286    0.808990     0.004307
NI        0.365994    0.280818    0.813592     0.004307
NI        0.355226    0.320541    0.840235     0.004307
NI        0.406694    0.277599    0.842192     0.004307
NI        0.403386    0.322747    0.823835     0.004307
NI        0.448203    0.287382    0.820681     0.004307
NI        0.442717    0.329406    0.853476     0.004307
NI        0.491187    0.279769    0.842170     0.004307
NI        0.481535    0.324820    0.825219     0.004307
NI        0.523387    0.275656    0.807947     0.004307
NI        0.525439    0.313513    0.837964     0.004307
NI        0.562226    0.276405    0.838959     0.004307
NI        0.566517    0.316008    0.811366     0.004307
NI        0.601918    0.282648    0.811062     0.004307
NI        0.602312    0.324120    0.838078     0.004307
NI        0.642248    0.325478    0.816125     0.004307
NI        0.174572    0.396509    0.808830     0.004307
NI        0.208592    0.360146    0.805170     0.004307
NI        0.244461    0.360224    0.836069     0.004307
NI        0.242646    0.398628    0.803528     0.004307
NI        0.283124    0.357115    0.810494     0.004307
NI        0.281133    0.396246    0.836694     0.004307
NI        0.318919    0.356608    0.841806     0.004307
NI        0.329352    0.403274    0.826345     0.004307
NI        0.364109    0.364928    0.830142     0.004307
NI        0.369038    0.407443    0.853410     0.004307
NI        0.406645    0.365103    0.854326     0.004307
NI        0.405952    0.403892    0.825271     0.004307
NI        0.443882    0.365978    0.825438     0.004307
NI        0.445101    0.404622    0.852659     0.004307
NI        0.479904    0.367366    0.856950     0.004307
NI        0.482034    0.399741    0.820279     0.004307
NI        0.517708    0.361592    0.826600     0.004307
NI        0.515760    0.402712    0.856368     0.004307
NI        0.564828    0.355809    0.841944     0.004307
NI        0.556739    0.401666    0.826527     0.004307
NI        0.601433    0.362932    0.809754     0.004307
NI        0.603911    0.399560    0.840007     0.004307
NI        0.637377    0.364753    0.843191     0.004307
NI        0.638892    0.395058    0.806031     0.004307
NI        0.674275    0.361222    0.814291     0.004307
NI        0.706962    0.398186    0.817546     0.004307
NI        0.177550    0.470777    0.809242     0.004307
NI        0.213079    0.435963    0.804044     0.004307
NI        0.253205    0.441582    0.830792     0.004307
NI        0.248404    0.480106    0.803348     0.004307
NI        0.299359    0.443277    0.825368     0.004307
NI        0.280797    0.483680    0.837530     0.004307
NI        0.333904    0.442221    0.859582     0.004307
NI        0.328015    0.478774    0.825457     0.004307
NI        0.365820    0.440336    0.824404     0.004307
NI        0.369929    0.479105    0.850955     0.004307
NI        0.402582    0.442091    0.852150     0.004307
NI        0.408045    0.478837    0.822856     0.004307
NI        0.443409    0.442541    0.823571     0.004307
NI        0.442907    0.476408    0.854804     0.004307
NI        0.478589    0.439210    0.852956     0.004307
NI        0.478862    0.479262    0.826365     0.004307
NI        0.519504    0.434373    0.824113     0.004307
NI        0.522030    0.474685    0.846942     0.004307
NI        0.561569    0.441446    0.855261     0.004307
NI        0.565567    0.476676    0.822439     0.004307
NI        0.597177    0.441513    0.821418     0.004307
NI        0.603818    0.477518    0.851574     0.004307
NI        0.638806    0.431334    0.842222     0.004307
NI        0.639874    0.473827    0.817734     0.004307
NI        0.674857    0.433569    0.811870     0.004307
NI        0.707489    0.468572    0.814990     0.004307
NI        0.209809    0.515239    0.807583     0.004307
NI        0.248027    0.517133    0.836114     0.004307
NI        0.245926    0.556713    0.810656     0.004307
NI        0.282145    0.524731    0.805933     0.004307
NI        0.283346    0.561922    0.835652     0.004307
NI        0.323169    0.526317    0.837313     0.004307
NI        0.320030    0.564979    0.805078     0.004307
NI        0.368060    0.518116    0.825050     0.004307
NI        0.362115    0.563404    0.838337     0.004307
NI        0.406522    0.514051    0.856137     0.004307
NI        0.407886    0.551170    0.824390     0.004307
NI        0.441866    0.516740    0.824384     0.004307
NI        0.442816    0.547541    0.856895     0.004307
NI        0.480965    0.515300    0.857152     0.004307
NI        0.479943    0.552732    0.825954     0.004307
NI        0.516289    0.519805    0.825737     0.004307
NI        0.527314    0.563439    0.839250     0.004307
NI        0.561130    0.523316    0.838181     0.004307
NI        0.562191    0.563221    0.805676     0.004307
NI        0.602166    0.510528    0.817763     0.004307
NI        0.597979    0.553614    0.834503     0.004307
NI        0.639946    0.509396    0.845551     0.004307
NI        0.641113    0.546148    0.817240     0.004307
NI        0.676594    0.509555    0.817462     0.004307
NI        0.252141    0.631360    0.802929     0.004307
NI        0.285917    0.599217    0.801673     0.004307
NI        0.326235    0.602214    0.834514     0.004307
NI        0.327711    0.639758    0.807361     0.004307
NI        0.365599    0.603946    0.806709     0.004307
NI        0.365365    0.635888    0.840355     0.004307
NI        0.397662    0.597040    0.841770     0.004307
NI        0.403045    0.634404    0.806333     0.004307
NI        0.442855    0.585041    0.824681     0.004307
NI        0.452247    0.631231    0.832252     0.004307
NI        0.487449    0.599891    0.838728     0.004307
NI        0.490138    0.636223    0.805827     0.004307
NI        0.524929    0.603027    0.809361     0.004307
NI        0.524803    0.634173    0.844067     0.004307
NI        0.562016    0.596379    0.840238     0.004307
NI        0.560703    0.638562    0.811765     0.004307
NI        0.598459    0.593438    0.809311     0.004307
NI        0.634450    0.623732    0.800683     0.004307
NI        0.365361    0.670180    0.807413     0.004307
NI        0.414402    0.701411    0.813626     0.004307
NI        0.444772    0.667667    0.801806     0.004307
NI        0.481839    0.706783    0.809905     0.004307
NI        0.527262    0.669929    0.810274     0.004307
NI        0.408901    0.405928    0.886682     0.004307
NI        0.444224    0.370128    0.885468     0.004307
NI        0.477700    0.405139    0.886039     0.004307
NI        0.371533    0.440902    0.888961     0.004307
NI        0.403620    0.475995    0.885808     0.004307
NI        0.441175    0.439646    0.883552     0.004307
NI        0.480114    0.472868    0.884770     0.004307
NI        0.516452    0.443174    0.880378     0.004307
NI        0.442295    0.509083    0.890117     0.004307
