data_00001
_audit_creation_method   'DISCUS'

_data_chemical_name_common 'Au.cell: Pearson 85'

_cell_length_a             61.1835
_cell_length_b             57.1046
_cell_length_c             61.1835
_cell_angle_alpha     90.0000
_cell_angle_beta      90.0000
_cell_angle_gamma     90.0000

_symmetry_space_group_name_H-M   'P1              '

loop_
_atom_site_label
_atom_site_symbol
_atom_site_fract_x
_atom_site_fract_y
_atom_site_fract_z
_atom_site_u_iso_or_equiv
PD1   PD        0.367498    0.305877    0.069614     0.005394
AU2   AU        0.435057    0.307939    0.069648     0.007504
PD3   PD        0.501781    0.305858    0.068389     0.005394
AU4   AU        0.302840    0.378381    0.070363     0.007504
AU5   AU        0.335784    0.342131    0.070203     0.007504
AU6   AU        0.369736    0.379198    0.066986     0.007504
AU7   AU        0.403451    0.342456    0.066215     0.007504
AU8   AU        0.437431    0.378537    0.068603     0.007504
AU9   AU        0.467874    0.342378    0.067874     0.007504
AU10   AU        0.502659    0.377876    0.068715     0.007504
PD11   PD        0.536895    0.344636    0.066257     0.005394
AU12   AU        0.568410    0.380706    0.064807     0.007504
PD13   PD        0.271187    0.415569    0.069681     0.005394
PD14   PD        0.306617    0.450970    0.069832     0.005394
AU15   AU        0.336798    0.413535    0.067901     0.007504
AU16   AU        0.369946    0.447056    0.067505     0.007504
AU17   AU        0.403670    0.414258    0.066473     0.007504
AU18   AU        0.404294    0.450368    0.036221     0.007504
AU19   AU        0.438967    0.415368    0.035558     0.007504
AU20   AU        0.438344    0.449466    0.068899     0.007504
AU21   AU        0.470114    0.415491    0.068598     0.007504
PD22   PD        0.468476    0.488957    0.000667     0.005394
PD23   PD        0.500990    0.451170    0.070529     0.005394
PD24   PD        0.535937    0.416599    0.065407     0.005394
PD25   PD        0.568769    0.448590    0.067757     0.005394
PD26   PD        0.601184    0.414932    0.069510     0.005394
PD27   PD        0.272850    0.482567    0.066488     0.005394
PD28   PD        0.304707    0.520542    0.066807     0.005394
AU29   AU        0.337169    0.487978    0.066668     0.007504
PD30   PD        0.369696    0.482019    0.034621     0.005394
PD31   PD        0.369000    0.519576    0.067566     0.005394
AU32   AU        0.402201    0.484752    0.069084     0.007504
PD33   PD        0.403233    0.517983    0.036065     0.005394
AU34   AU        0.438328    0.484067    0.033661     0.007504
AU35   AU        0.435169    0.521753    0.068315     0.007504
AU36   AU        0.467786    0.485283    0.067634     0.007504
PD37   PD        0.469000    0.518990    0.035168     0.005394
PD38   PD        0.499114    0.482590    0.033753     0.005394
AU39   AU        0.501472    0.522055    0.066577     0.007504
AU40   AU        0.536288    0.485519    0.067127     0.007504
PD41   PD        0.571616    0.520231    0.064973     0.005394
PD42   PD        0.600880    0.482081    0.068767     0.005394
PD43   PD        0.270081    0.552122    0.065637     0.005394
PD44   PD        0.299165    0.592718    0.068874     0.005394
AU45   AU        0.336876    0.555374    0.066017     0.007504
PD46   PD        0.367449    0.589648    0.067604     0.005394
PD47   PD        0.401614    0.553543    0.067013     0.005394
PD48   PD        0.436603    0.557417    0.033876     0.005394
AU49   AU        0.437778    0.592246    0.066400     0.007504
AU50   AU        0.468100    0.555667    0.066463     0.007504
AU51   AU        0.499499    0.589704    0.067723     0.007504
AU52   AU        0.535915    0.553796    0.066101     0.007504
PD53   PD        0.568593    0.588457    0.067883     0.005394
PD54   PD        0.638304    0.561267    0.032000     0.005394
AU55   AU        0.337000    0.625636    0.069564     0.007504
PD56   PD        0.369972    0.661440    0.066551     0.005394
PD57   PD        0.368311    0.624007    0.033826     0.005394
PD58   PD        0.433296    0.672855    0.001085     0.005394
AU59   AU        0.471359    0.628008    0.067390     0.007504
PD60   PD        0.503528    0.664648    0.071219     0.005394
PD61   PD        0.534491    0.626356    0.067510     0.005394
PD62   PD        0.302550    0.197902    0.101510     0.005394
PD63   PD        0.370362    0.235806    0.131998     0.005394
PD64   PD        0.406895    0.199396    0.133274     0.005394
PD65   PD        0.375938    0.234461    0.062302     0.005394
PD66   PD        0.436177    0.235953    0.132892     0.005394
PD67   PD        0.456732    0.137218    0.124937     0.005394
PD68   PD        0.468851    0.237321    0.101356     0.005394
PD69   PD        0.503330    0.238445    0.132640     0.005394
PD70   PD        0.568605    0.237377    0.133245     0.005394
AU71   AU        0.241160    0.304818    0.132407     0.007504
PD72   PD        0.274398    0.268964    0.134209     0.005394
PD73   PD        0.273223    0.343369    0.070440     0.005394
PD74   PD        0.302933    0.306271    0.135439     0.005394
PD75   PD        0.337133    0.269538    0.132540     0.005394
AU76   AU        0.337414    0.308118    0.102449     0.007504
PD77   PD        0.372213    0.271947    0.099946     0.005394
AU78   AU        0.369157    0.307220    0.134101     0.007504
PD79   PD        0.402652    0.270445    0.131990     0.005394
AU80   AU        0.402624    0.307958    0.100519     0.007504
PD81   PD        0.433716    0.273038    0.101024     0.005394
PD82   PD        0.436954    0.306136    0.131925     0.005394
AU83   AU        0.470407    0.273418    0.134837     0.007504
AU84   AU        0.468037    0.306974    0.099563     0.007504
AU85   AU        0.503236    0.273924    0.101877     0.007504
AU86   AU        0.502258    0.307059    0.133085     0.007504
AU87   AU        0.535411    0.271131    0.133440     0.007504
PD88   PD        0.567887    0.306610    0.061610     0.005394
PD89   PD        0.571927    0.309500    0.134516     0.005394
PD90   PD        0.600036    0.270983    0.136351     0.005394
PD91   PD        0.630135    0.272634    0.098038     0.005394
PD92   PD        0.634935    0.307609    0.134714     0.005394
PD93   PD        0.205881    0.341616    0.129568     0.005394
PD94   PD        0.236943    0.380087    0.133322     0.005394
AU95   AU        0.268838    0.343344    0.132914     0.007504
AU96   AU        0.269356    0.378540    0.100830     0.007504
AU97   AU        0.303635    0.341451    0.102509     0.007504
PD98   PD        0.303780    0.380348    0.132603     0.005394
AU99   AU        0.336073    0.341911    0.132947     0.007504
AU100   AU        0.336997    0.377810    0.101143     0.007504
AU101   AU        0.371173    0.344140    0.103074     0.007504
PD102   PD        0.369919    0.378791    0.133338     0.005394
PD103   PD        0.405223    0.341777    0.134737     0.005394
AU104   AU        0.404664    0.378219    0.099912     0.007504
AU105   AU        0.433975    0.343162    0.100529     0.007504
AU106   AU        0.436947    0.377562    0.132930     0.007504
AU107   AU        0.469991    0.341472    0.131779     0.007504
PD108   PD        0.469339    0.376140    0.099244     0.005394
AU109   AU        0.501829    0.342397    0.100531     0.007504
PD110   PD        0.503083    0.377590    0.131194     0.005394
PD111   PD        0.535405    0.344566    0.132824     0.005394
AU112   AU        0.535129    0.380563    0.097986     0.007504
PD113   PD        0.566631    0.341557    0.098893     0.005394
PD114   PD        0.567683    0.379500    0.134818     0.005394
PD115   PD        0.602829    0.345015    0.131532     0.005394
AU116   AU        0.597846    0.378742    0.099553     0.007504
AU117   AU        0.633929    0.379164    0.133208     0.007504
PD118   PD        0.673468    0.344570    0.134495     0.005394
PD119   PD        0.174073    0.450539    0.133004     0.005394
PD120   PD        0.204545    0.414715    0.135080     0.005394
PD121   PD        0.205431    0.450925    0.102112     0.005394
AU122   AU        0.237531    0.415354    0.102276     0.007504
AU123   AU        0.237870    0.450882    0.133112     0.007504
PD124   PD        0.268973    0.413702    0.135550     0.005394
AU125   AU        0.270892    0.449876    0.103325     0.007504
AU126   AU        0.301724    0.414875    0.100665     0.007504
AU127   AU        0.304239    0.452541    0.133482     0.007504
AU128   AU        0.337095    0.414042    0.134627     0.007504
PD129   PD        0.334693    0.450846    0.097167     0.005394
AU130   AU        0.368587    0.412519    0.100935     0.007504
PD131   PD        0.367996    0.450002    0.134942     0.005394
PD132   PD        0.401960    0.414289    0.133560     0.005394
AU133   AU        0.404975    0.448595    0.100269     0.007504
AU134   AU        0.437443    0.412837    0.101050     0.007504
PD135   PD        0.435239    0.449147    0.133047     0.005394
PD136   PD        0.469830    0.412473    0.131379     0.005394
AU137   AU        0.468501    0.449418    0.099686     0.007504
AU138   AU        0.502604    0.414407    0.100829     0.007504
AU139   AU        0.502191    0.449335    0.131789     0.007504
AU140   AU        0.534871    0.414119    0.134281     0.007504
AU141   AU        0.535880    0.447608    0.100012     0.007504
AU142   AU        0.568259    0.415092    0.099262     0.007504
AU143   AU        0.568288    0.450108    0.133821     0.007504
PD144   PD        0.602022    0.412896    0.134433     0.005394
AU145   AU        0.602285    0.448957    0.100492     0.007504
AU146   AU        0.635946    0.415527    0.098819     0.007504
AU147   AU        0.634458    0.447931    0.133461     0.007504
AU148   AU        0.668357    0.412126    0.134048     0.007504
PD149   PD        0.669398    0.448271    0.100426     0.005394
PD150   PD        0.704028    0.446317    0.131835     0.005394
PD151   PD        0.172219    0.520236    0.131761     0.005394
PD152   PD        0.204832    0.486570    0.133082     0.005394
PD153   PD        0.203745    0.518212    0.100253     0.005394
AU154   AU        0.236145    0.485909    0.099944     0.007504
AU155   AU        0.239696    0.521488    0.133999     0.007504
AU156   AU        0.270338    0.484866    0.134814     0.007504
AU157   AU        0.272394    0.519240    0.099482     0.007504
AU158   AU        0.304556    0.486460    0.099398     0.007504
AU159   AU        0.304396    0.519340    0.132832     0.007504
PD160   PD        0.335118    0.485451    0.134562     0.005394
AU161   AU        0.338204    0.519354    0.102057     0.007504
PD162   PD        0.367165    0.483285    0.101465     0.005394
AU163   AU        0.370604    0.521631    0.133155     0.007504
AU164   AU        0.401051    0.485020    0.132710     0.007504
PD165   PD        0.400768    0.522572    0.099601     0.005394
AU166   AU        0.437787    0.485367    0.100853     0.007504
PD167   PD        0.436381    0.520416    0.134472     0.005394
AU168   AU        0.469787    0.484775    0.133452     0.007504
PD169   PD        0.470494    0.520978    0.101255     0.005394
AU170   AU        0.503041    0.485234    0.099949     0.007504
PD171   PD        0.502230    0.521068    0.132572     0.005394
PD172   PD        0.535490    0.483534    0.131997     0.005394
AU173   AU        0.534856    0.523791    0.101610     0.007504
AU174   AU        0.567947    0.484255    0.099473     0.007504
PD175   PD        0.567841    0.518600    0.133276     0.005394
AU176   AU        0.601844    0.484211    0.134291     0.007504
AU177   AU        0.600758    0.519566    0.101663     0.007504
PD178   PD        0.634479    0.480867    0.098648     0.005394
PD179   PD        0.636574    0.516410    0.134041     0.005394
AU180   AU        0.669263    0.482669    0.133672     0.007504
PD181   PD        0.663807    0.521082    0.100216     0.005394
PD182   PD        0.737361    0.567499    0.110732     0.005394
AU183   AU        0.202729    0.558352    0.133659     0.007504
AU184   AU        0.236140    0.553258    0.100470     0.007504
AU185   AU        0.235540    0.590991    0.134476     0.007504
PD186   PD        0.270248    0.556945    0.134973     0.005394
PD187   PD        0.269437    0.591236    0.100495     0.005394
AU188   AU        0.303379    0.556447    0.099721     0.007504
PD189   PD        0.303107    0.590954    0.132341     0.005394
PD190   PD        0.336176    0.555795    0.134658     0.005394
AU191   AU        0.334849    0.591636    0.099893     0.007504
PD192   PD        0.368056    0.556788    0.099577     0.005394
PD193   PD        0.369851    0.591227    0.132613     0.005394
PD194   PD        0.403875    0.559001    0.134600     0.005394
AU195   AU        0.403729    0.591287    0.100365     0.007504
AU196   AU        0.435551    0.556023    0.099892     0.007504
AU197   AU        0.435337    0.591794    0.135039     0.007504
PD198   PD        0.467831    0.557646    0.134207     0.005394
AU199   AU        0.468525    0.591520    0.102088     0.007504
PD200   PD        0.500032    0.556839    0.100265     0.005394
AU201   AU        0.499548    0.592060    0.132843     0.007504
AU202   AU        0.534304    0.557278    0.134088     0.007504
AU203   AU        0.532885    0.588055    0.100148     0.007504
AU204   AU        0.567433    0.554417    0.100045     0.007504
AU205   AU        0.568059    0.590394    0.132093     0.007504
PD206   PD        0.601745    0.554021    0.132166     0.005394
PD207   PD        0.606199    0.583234    0.081586     0.005394
PD208   PD        0.666269    0.563622    0.079256     0.005394
PD209   PD        0.633053    0.589386    0.132181     0.005394
PD210   PD        0.666913    0.554307    0.136314     0.005394
PD211   PD        0.206825    0.626704    0.133377     0.005394
PD212   PD        0.238915    0.662462    0.137075     0.005394
AU213   AU        0.270235    0.626127    0.132104     0.007504
PD214   PD        0.273184    0.663794    0.102408     0.005394
PD215   PD        0.304033    0.629247    0.102154     0.005394
PD216   PD        0.305582    0.663417    0.131418     0.005394
PD217   PD        0.340572    0.628020    0.134307     0.005394
AU218   AU        0.339666    0.662141    0.101305     0.007504
AU219   AU        0.370295    0.625775    0.101622     0.007504
AU220   AU        0.372207    0.662401    0.135635     0.007504
PD221   PD        0.405130    0.625190    0.134238     0.005394
PD222   PD        0.403199    0.661496    0.100954     0.005394
AU223   AU        0.438931    0.625243    0.100307     0.007504
PD224   PD        0.434725    0.662791    0.134380     0.005394
PD225   PD        0.470447    0.629121    0.133763     0.005394
PD226   PD        0.470041    0.662478    0.103626     0.005394
AU227   AU        0.501396    0.625368    0.099745     0.007504
PD228   PD        0.501891    0.660632    0.133756     0.005394
AU229   AU        0.533368    0.625695    0.134400     0.007504
PD230   PD        0.533765    0.660034    0.102160     0.005394
PD231   PD        0.562714    0.624257    0.100009     0.005394
PD232   PD        0.568915    0.660486    0.135562     0.005394
PD233   PD        0.640688    0.587422    0.062598     0.005394
PD234   PD        0.591565    0.666588    0.080520     0.005394
AU235   AU        0.637550    0.662529    0.132808     0.007504
PD236   PD        0.673590    0.625384    0.136974     0.005394
AU237   AU        0.274654    0.697558    0.132775     0.007504
AU238   AU        0.307621    0.732492    0.134128     0.007504
AU239   AU        0.337860    0.697129    0.135167     0.007504
AU240   AU        0.373256    0.697615    0.102793     0.007504
PD241   PD        0.370120    0.734817    0.131330     0.005394
AU242   AU        0.404542    0.697496    0.133963     0.007504
AU243   AU        0.403136    0.732852    0.100781     0.007504
PD244   PD        0.439360    0.697280    0.101560     0.005394
AU245   AU        0.435684    0.734179    0.134622     0.007504
PD246   PD        0.469037    0.697168    0.135254     0.005394
PD247   PD        0.472205    0.734251    0.100220     0.005394
PD248   PD        0.503873    0.696729    0.100926     0.005394
PD249   PD        0.501094    0.732349    0.132894     0.005394
PD250   PD        0.533985    0.696185    0.134706     0.005394
PD251   PD        0.566022    0.733402    0.134448     0.005394
PD252   PD        0.601126    0.696752    0.134320     0.005394
PD253   PD        0.374709    0.841757    0.099339     0.005394
AU254   AU        0.468479    0.768474    0.132877     0.007504
PD255   PD        0.306291    0.165587    0.200738     0.005394
PD256   PD        0.372997    0.168180    0.200749     0.005394
PD257   PD        0.402681    0.133266    0.202073     0.005394
PD258   PD        0.402039    0.164953    0.167725     0.005394
AU259   AU        0.438319    0.166919    0.200615     0.007504
PD260   PD        0.468599    0.131344    0.197706     0.005394
PD261   PD        0.472419    0.092883    0.166001     0.005394
PD262   PD        0.503655    0.164738    0.201650     0.005394
PD263   PD        0.569099    0.163573    0.203026     0.005394
AU264   AU        0.238012    0.235081    0.199650     0.007504
PD265   PD        0.274040    0.199178    0.199564     0.005394
AU266   AU        0.271509    0.234233    0.167170     0.007504
PD267   PD        0.266889    0.200842    0.130578     0.005394
AU268   AU        0.305342    0.235452    0.200798     0.007504
AU269   AU        0.339174    0.201721    0.201216     0.007504
AU270   AU        0.336091    0.237069    0.167604     0.007504
PD271   PD        0.369802    0.200706    0.166348     0.005394
AU272   AU        0.370346    0.236679    0.199300     0.007504
PD273   PD        0.404449    0.203325    0.200260     0.005394
AU274   AU        0.402565    0.236323    0.164211     0.007504
PD275   PD        0.436960    0.200227    0.166501     0.005394
PD276   PD        0.438910    0.237640    0.199430     0.005394
AU277   AU        0.471760    0.201772    0.199297     0.007504
AU278   AU        0.469672    0.235673    0.165097     0.007504
PD279   PD        0.503539    0.204039    0.164386     0.005394
PD280   PD        0.501094    0.233839    0.201316     0.005394
AU281   AU        0.535225    0.200693    0.198667     0.007504
AU282   AU        0.535952    0.235500    0.167466     0.007504
AU283   AU        0.569940    0.196134    0.168733     0.007504
PD284   PD        0.568935    0.235083    0.201254     0.005394
PD285   PD        0.604336    0.197704    0.201668     0.005394
PD286   PD        0.601207    0.232172    0.167636     0.005394
PD287   PD        0.638204    0.231994    0.199499     0.005394
PD288   PD        0.174988    0.309300    0.196880     0.005394
PD289   PD        0.205966    0.268621    0.200709     0.005394
PD290   PD        0.205926    0.307488    0.167036     0.005394
AU291   AU        0.239144    0.270983    0.165813     0.007504
AU292   AU        0.237663    0.304170    0.199985     0.007504
PD293   PD        0.271193    0.271116    0.201177     0.005394
AU294   AU        0.271488    0.305129    0.168686     0.007504
AU295   AU        0.303773    0.271589    0.166804     0.007504
AU296   AU        0.304041    0.307550    0.199298     0.007504
AU297   AU        0.335165    0.271649    0.199010     0.007504
AU298   AU        0.336113    0.306251    0.166353     0.007504
AU299   AU        0.370956    0.270823    0.165752     0.007504
PD300   PD        0.369443    0.307557    0.196946     0.005394
PD301   PD        0.404911    0.272414    0.199316     0.005394
PD302   PD        0.405392    0.305230    0.165235     0.005394
AU303   AU        0.436640    0.272014    0.165497     0.007504
PD304   PD        0.437054    0.308321    0.200117     0.005394
AU305   AU        0.469406    0.272116    0.198944     0.007504
AU306   AU        0.470803    0.308430    0.165498     0.007504
AU307   AU        0.504898    0.271859    0.166515     0.007504
AU308   AU        0.501327    0.305249    0.199519     0.007504
PD309   PD        0.535351    0.270202    0.199979     0.005394
PD310   PD        0.537867    0.307153    0.167677     0.005394
PD311   PD        0.569357    0.272525    0.167360     0.005394
AU312   AU        0.570345    0.305478    0.201177     0.007504
AU313   AU        0.603546    0.269647    0.197820     0.007504
PD314   PD        0.600552    0.307696    0.166597     0.005394
PD315   PD        0.637538    0.269886    0.167140     0.005394
PD316   PD        0.634141    0.304362    0.201911     0.005394
PD317   PD        0.668069    0.271656    0.199673     0.005394
AU318   AU        0.671414    0.307372    0.167375     0.007504
PD319   PD        0.738717    0.309979    0.162120     0.005394
AU320   AU        0.137397    0.339579    0.197525     0.007504
AU321   AU        0.140096    0.379199    0.167648     0.007504
AU322   AU        0.171705    0.376219    0.200485     0.007504
PD323   PD        0.205637    0.343388    0.201099     0.005394
AU324   AU        0.204982    0.377886    0.167078     0.007504
AU325   AU        0.237791    0.340480    0.166635     0.007504
AU326   AU        0.239301    0.376906    0.199141     0.007504
PD327   PD        0.270902    0.343028    0.200088     0.005394
AU328   AU        0.270420    0.377440    0.166156     0.007504
AU329   AU        0.303572    0.343950    0.165390     0.007504
AU330   AU        0.304371    0.375831    0.199655     0.007504
PD331   PD        0.336939    0.341879    0.199486     0.005394
PD332   PD        0.340455    0.376366    0.167569     0.005394
PD333   PD        0.372667    0.344152    0.165394     0.005394
AU334   AU        0.369325    0.379746    0.198461     0.007504
PD335   PD        0.403141    0.341932    0.198018     0.005394
PD336   PD        0.401281    0.379351    0.165350     0.005394
PD337   PD        0.438306    0.343896    0.164218     0.005394
AU338   AU        0.434815    0.377901    0.198224     0.007504
AU339   AU        0.470555    0.341505    0.201296     0.007504
PD340   PD        0.470009    0.375597    0.166642     0.005394
PD341   PD        0.501757    0.343351    0.167183     0.005394
AU342   AU        0.503478    0.375633    0.200072     0.007504
PD343   PD        0.534577    0.338192    0.199677     0.005394
PD344   PD        0.535284    0.377240    0.166554     0.005394
AU345   AU        0.569510    0.344857    0.166683     0.007504
PD346   PD        0.571587    0.376112    0.201091     0.005394
PD347   PD        0.606024    0.342099    0.200801     0.005394
AU348   AU        0.602618    0.378920    0.166344     0.007504
AU349   AU        0.637114    0.342845    0.164827     0.007504
AU350   AU        0.635670    0.378155    0.199462     0.007504
PD351   PD        0.668044    0.342831    0.197470     0.005394
PD352   PD        0.668640    0.380104    0.166180     0.005394
PD353   PD        0.700582    0.345129    0.165679     0.005394
AU354   AU        0.699478    0.377890    0.199244     0.007504
PD355   PD        0.732961    0.340607    0.199597     0.005394
PD356   PD        0.074275    0.483702    0.193431     0.005394
AU357   AU        0.139113    0.411624    0.201143     0.007504
PD358   PD        0.139848    0.445966    0.164831     0.005394
PD359   PD        0.172687    0.413013    0.169045     0.005394
PD360   PD        0.173999    0.449121    0.202017     0.005394
AU361   AU        0.204701    0.413017    0.200450     0.007504
AU362   AU        0.205085    0.449561    0.168644     0.007504
PD363   PD        0.237044    0.415955    0.164629     0.005394
PD364   PD        0.239043    0.449745    0.198416     0.005394
PD365   PD        0.270617    0.415529    0.200834     0.005394
AU366   AU        0.271142    0.448685    0.165904     0.007504
AU367   AU        0.303623    0.414138    0.166366     0.007504
PD368   PD        0.305758    0.449370    0.197551     0.005394
PD369   PD        0.337409    0.414307    0.198624     0.005394
AU370   AU        0.338063    0.449605    0.168124     0.007504
PD371   PD        0.368551    0.414704    0.166040     0.005394
AU372   AU        0.370260    0.449136    0.199838     0.007504
AU373   AU        0.402406    0.413337    0.201072     0.007504
AU374   AU        0.403567    0.449165    0.165408     0.007504
AU375   AU        0.438279    0.411967    0.164933     0.007504
PD376   PD        0.433348    0.446059    0.199261     0.005394
AU377   AU        0.469201    0.413820    0.198685     0.007504
PD378   PD        0.469935    0.448420    0.164358     0.005394
PD379   PD        0.502009    0.410824    0.166867     0.005394
PD380   PD        0.502555    0.450651    0.200546     0.005394
AU381   AU        0.536864    0.413509    0.199812     0.007504
PD382   PD        0.534001    0.451789    0.166417     0.005394
PD383   PD        0.566501    0.412844    0.168299     0.005394
AU384   AU        0.569301    0.448451    0.198519     0.007504
AU385   AU        0.601909    0.414524    0.198574     0.007504
PD386   PD        0.602048    0.445880    0.165152     0.005394
PD387   PD        0.636668    0.414118    0.165571     0.005394
PD388   PD        0.635395    0.448061    0.198924     0.005394
AU389   AU        0.668270    0.413001    0.199662     0.007504
PD390   PD        0.673147    0.447079    0.165879     0.005394
AU391   AU        0.702505    0.411682    0.168321     0.007504
AU392   AU        0.701999    0.446929    0.199409     0.007504
AU393   AU        0.733382    0.413679    0.200942     0.007504
AU394   AU        0.735839    0.449830    0.168165     0.007504
PD395   PD        0.767935    0.450989    0.201041     0.005394
PD396   PD        0.070442    0.551388    0.194313     0.005394
PD397   PD        0.140582    0.483536    0.197165     0.005394
PD398   PD        0.140275    0.522035    0.166472     0.005394
PD399   PD        0.173697    0.482914    0.165913     0.005394
AU400   AU        0.173048    0.519386    0.198282     0.007504
AU401   AU        0.205158    0.483650    0.200141     0.007504
AU402   AU        0.205530    0.520990    0.167158     0.007504
PD403   PD        0.238220    0.485107    0.166729     0.005394
AU404   AU        0.238637    0.521097    0.197956     0.007504
PD405   PD        0.271462    0.485376    0.197587     0.005394
AU406   AU        0.272009    0.519255    0.164504     0.007504
AU407   AU        0.304581    0.483324    0.167351     0.007504
AU408   AU        0.304889    0.519829    0.198532     0.007504
AU409   AU        0.335962    0.484243    0.200333     0.007504
AU410   AU        0.336803    0.520839    0.166200     0.007504
AU411   AU        0.368762    0.486120    0.167243     0.007504
PD412   PD        0.368611    0.521459    0.199648     0.005394
AU413   AU        0.400221    0.484204    0.199732     0.007504
PD414   PD        0.403455    0.521332    0.166443     0.005394
PD415   PD        0.436989    0.482064    0.166876     0.005394
AU416   AU        0.437394    0.520865    0.199649     0.007504
PD417   PD        0.469366    0.484080    0.199429     0.005394
PD418   PD        0.471198    0.521363    0.165198     0.005394
AU419   AU        0.502111    0.485156    0.166200     0.007504
AU420   AU        0.505270    0.519800    0.201246     0.007504
PD421   PD        0.539357    0.484138    0.199180     0.005394
AU422   AU        0.535388    0.521378    0.166806     0.007504
PD423   PD        0.568445    0.486410    0.166149     0.005394
PD424   PD        0.569803    0.520020    0.198192     0.005394
PD425   PD        0.603030    0.482775    0.198958     0.005394
AU426   AU        0.601813    0.520950    0.165889     0.007504
AU427   AU        0.636623    0.481896    0.166453     0.007504
PD428   PD        0.634614    0.518454    0.199553     0.005394
AU429   AU        0.671292    0.483327    0.200779     0.007504
PD430   PD        0.668305    0.517836    0.168885     0.005394
PD431   PD        0.700231    0.485394    0.167232     0.005394
PD432   PD        0.702152    0.518839    0.202389     0.005394
AU433   AU        0.735215    0.485527    0.201577     0.007504
PD434   PD        0.737588    0.521140    0.165193     0.005394
PD435   PD        0.768660    0.524065    0.202566     0.005394
PD436   PD        0.139261    0.558613    0.200615     0.005394
AU437   AU        0.170294    0.558640    0.168057     0.007504
AU438   AU        0.173094    0.592426    0.200871     0.007504
AU439   AU        0.206179    0.555363    0.199247     0.007504
PD440   PD        0.203165    0.593554    0.167489     0.005394
AU441   AU        0.237579    0.556830    0.164630     0.007504
AU442   AU        0.238180    0.590612    0.199535     0.007504
AU443   AU        0.271141    0.555480    0.198307     0.007504
AU444   AU        0.269893    0.591399    0.165220     0.007504
AU445   AU        0.302872    0.556042    0.166855     0.007504
AU446   AU        0.300904    0.591869    0.198230     0.007504
AU447   AU        0.337552    0.558540    0.199151     0.007504
PD448   PD        0.337264    0.593518    0.167851     0.005394
PD449   PD        0.370321    0.556789    0.165844     0.005394
AU450   AU        0.371121    0.591947    0.200603     0.007504
AU451   AU        0.403901    0.552873    0.200346     0.007504
PD452   PD        0.404131    0.592392    0.167765     0.005394
AU453   AU        0.437184    0.555246    0.166796     0.007504
AU454   AU        0.436463    0.588209    0.199286     0.007504
AU455   AU        0.471208    0.554532    0.199550     0.007504
AU456   AU        0.468063    0.590353    0.167106     0.007504
AU457   AU        0.502691    0.557990    0.165738     0.007504
AU458   AU        0.500079    0.590318    0.198629     0.007504
PD459   PD        0.535279    0.555499    0.198037     0.005394
AU460   AU        0.533139    0.591666    0.165990     0.007504
PD461   PD        0.567950    0.556792    0.164075     0.005394
AU462   AU        0.568850    0.591997    0.197701     0.007504
PD463   PD        0.602403    0.554997    0.199880     0.005394
PD464   PD        0.600923    0.593581    0.164976     0.005394
PD465   PD        0.633765    0.555287    0.167764     0.005394
PD466   PD        0.635524    0.588911    0.200659     0.005394
PD467   PD        0.669961    0.554039    0.200695     0.005394
PD468   PD        0.670268    0.590895    0.170314     0.005394
AU469   AU        0.701934    0.551929    0.166747     0.007504
AU470   AU        0.699822    0.589210    0.203681     0.007504
AU471   AU        0.731929    0.554101    0.202421     0.007504
PD472   PD        0.135131    0.624093    0.199374     0.005394
PD473   PD        0.143234    0.628845    0.128254     0.005394
PD474   PD        0.170431    0.658462    0.196566     0.005394
AU475   AU        0.204780    0.627219    0.200240     0.007504
PD476   PD        0.206822    0.661884    0.166991     0.005394
AU477   AU        0.239293    0.626367    0.167260     0.007504
AU478   AU        0.238576    0.663910    0.198058     0.007504
PD479   PD        0.270400    0.627475    0.199207     0.005394
AU480   AU        0.270855    0.662800    0.167950     0.007504
AU481   AU        0.303282    0.626474    0.163652     0.007504
AU482   AU        0.305534    0.662172    0.198119     0.007504
AU483   AU        0.337006    0.627154    0.198429     0.007504
PD484   PD        0.338133    0.662375    0.166337     0.005394
PD485   PD        0.371067    0.628375    0.164617     0.005394
PD486   PD        0.370752    0.663771    0.199935     0.005394
PD487   PD        0.402498    0.625197    0.202555     0.005394
PD488   PD        0.404319    0.662553    0.165656     0.005394
PD489   PD        0.435194    0.629265    0.168108     0.005394
PD490   PD        0.435628    0.661562    0.202202     0.005394
PD491   PD        0.467842    0.626991    0.198566     0.005394
AU492   AU        0.468772    0.661732    0.168469     0.007504
PD493   PD        0.502905    0.627656    0.169310     0.005394
AU494   AU        0.501618    0.661948    0.200018     0.007504
AU495   AU        0.534849    0.627455    0.201460     0.007504
PD496   PD        0.536205    0.662674    0.168634     0.005394
PD497   PD        0.567142    0.624739    0.169297     0.005394
AU498   AU        0.568762    0.662399    0.198841     0.007504
AU499   AU        0.601581    0.627291    0.198394     0.007504
AU500   AU        0.600983    0.663656    0.168553     0.007504
PD501   PD        0.638311    0.625106    0.167480     0.005394
PD502   PD        0.636987    0.662527    0.198366     0.005394
PD503   PD        0.666787    0.625904    0.202557     0.005394
PD504   PD        0.698320    0.707409    0.166084     0.005394
PD505   PD        0.750510    0.691066    0.187173     0.005394
PD506   PD        0.700986    0.658430    0.200530     0.005394
PD507   PD        0.732051    0.625426    0.203121     0.005394
PD508   PD        0.200319    0.694080    0.198027     0.005394
PD509   PD        0.171549    0.742297    0.135267     0.005394
AU510   AU        0.238083    0.730540    0.198215     0.007504
PD511   PD        0.269836    0.696837    0.199840     0.005394
PD512   PD        0.273777    0.733563    0.167279     0.005394
AU513   AU        0.304278    0.696609    0.167400     0.007504
AU514   AU        0.306133    0.734392    0.199069     0.007504
AU515   AU        0.337007    0.696867    0.201692     0.007504
AU516   AU        0.338489    0.733547    0.166759     0.007504
AU517   AU        0.371279    0.698549    0.168457     0.007504
AU518   AU        0.369785    0.733886    0.201191     0.007504
AU519   AU        0.404094    0.699021    0.200786     0.007504
AU520   AU        0.402440    0.732769    0.167610     0.007504
AU521   AU        0.435542    0.698067    0.168458     0.007504
PD522   PD        0.434100    0.734088    0.199845     0.005394
AU523   AU        0.470740    0.697982    0.198864     0.007504
AU524   AU        0.469477    0.730764    0.166361     0.007504
AU525   AU        0.503702    0.696198    0.164976     0.007504
AU526   AU        0.500999    0.733391    0.200802     0.007504
AU527   AU        0.534449    0.696120    0.200150     0.007504
PD528   PD        0.531363    0.735556    0.162927     0.005394
AU529   AU        0.567632    0.698905    0.166195     0.007504
AU530   AU        0.568597    0.730994    0.200963     0.007504
PD531   PD        0.601880    0.699016    0.199105     0.005394
PD532   PD        0.599413    0.732438    0.169707     0.005394
PD533   PD        0.635215    0.698255    0.169904     0.005394
PD534   PD        0.636438    0.737006    0.203224     0.005394
PD535   PD        0.668724    0.698517    0.197669     0.005394
PD536   PD        0.272558    0.767543    0.198818     0.005394
AU537   AU        0.303657    0.769609    0.165781     0.007504
PD538   PD        0.306573    0.806654    0.198082     0.005394
AU539   AU        0.336553    0.770107    0.197847     0.007504
AU540   AU        0.371355    0.769806    0.166321     0.007504
PD541   PD        0.369015    0.806524    0.198250     0.005394
PD542   PD        0.402126    0.768068    0.198152     0.005394
PD543   PD        0.407177    0.805501    0.167479     0.005394
PD544   PD        0.436478    0.769147    0.167462     0.005394
AU545   AU        0.436428    0.806282    0.198866     0.007504
PD546   PD        0.468004    0.769932    0.198211     0.005394
PD547   PD        0.470439    0.803665    0.165981     0.005394
PD548   PD        0.505503    0.765417    0.167064     0.005394
PD549   PD        0.499485    0.799046    0.198682     0.005394
PD550   PD        0.536033    0.765562    0.199353     0.005394
PD551   PD        0.567930    0.768764    0.170100     0.005394
PD552   PD        0.566723    0.806514    0.200802     0.005394
PD553   PD        0.602550    0.771248    0.202115     0.005394
PD554   PD        0.402386    0.836650    0.199025     0.005394
PD555   PD        0.466869    0.874431    0.234685     0.005394
PD556   PD        0.370164    0.095122    0.267009     0.005394
PD557   PD        0.437860    0.095642    0.266409     0.005394
PD558   PD        0.500528    0.097883    0.264838     0.005394
AU559   AU        0.238414    0.165283    0.267823     0.007504
PD560   PD        0.274635    0.127207    0.266909     0.005394
PD561   PD        0.273954    0.165221    0.232472     0.005394
PD562   PD        0.305449    0.164858    0.267275     0.005394
PD563   PD        0.337378    0.130691    0.267482     0.005394
AU564   AU        0.335651    0.166205    0.234596     0.007504
PD565   PD        0.369322    0.133440    0.233645     0.005394
AU566   AU        0.371221    0.164193    0.268331     0.007504
PD567   PD        0.404512    0.128222    0.270935     0.005394
PD568   PD        0.402359    0.165921    0.234495     0.005394
PD569   PD        0.434679    0.129908    0.234805     0.005394
AU570   AU        0.437202    0.165275    0.265993     0.007504
PD571   PD        0.470609    0.128106    0.266318     0.005394
PD572   PD        0.467950    0.163155    0.233808     0.005394
PD573   PD        0.503134    0.129494    0.228515     0.005394
PD574   PD        0.501558    0.164200    0.265938     0.005394
AU575   AU        0.535933    0.127730    0.268427     0.007504
AU576   AU        0.535805    0.165186    0.234748     0.007504
AU577   AU        0.569370    0.165201    0.266842     0.007504
PD578   PD        0.600928    0.127787    0.266860     0.005394
AU579   AU        0.602024    0.163456    0.235338     0.007504
AU580   AU        0.634774    0.165759    0.268799     0.007504
PD581   PD        0.169997    0.236402    0.267292     0.005394
PD582   PD        0.200603    0.198806    0.266022     0.005394
AU583   AU        0.206277    0.235088    0.233664     0.007504
AU584   AU        0.240807    0.200666    0.233020     0.007504
PD585   PD        0.237785    0.233563    0.265606     0.005394
PD586   PD        0.272733    0.201588    0.268397     0.005394
AU587   AU        0.273559    0.234699    0.232646     0.007504
PD588   PD        0.304247    0.200161    0.233003     0.005394
AU589   AU        0.304427    0.236736    0.265613     0.007504
AU590   AU        0.337437    0.200095    0.265403     0.007504
AU591   AU        0.337988    0.235326    0.233512     0.007504
PD592   PD        0.372856    0.200039    0.234836     0.005394
PD593   PD        0.370947    0.234946    0.266194     0.005394
PD594   PD        0.404684    0.200727    0.265415     0.005394
AU595   AU        0.405826    0.236363    0.233256     0.007504
AU596   AU        0.439727    0.200672    0.232425     0.007504
PD597   PD        0.436344    0.233622    0.266982     0.005394
PD598   PD        0.470253    0.200130    0.266914     0.005394
PD599   PD        0.471690    0.237218    0.233781     0.005394
AU600   AU        0.503401    0.198879    0.233300     0.007504
PD601   PD        0.504247    0.236284    0.268009     0.005394
PD602   PD        0.536596    0.200606    0.269632     0.005394
AU603   AU        0.536608    0.235861    0.234811     0.007504
AU604   AU        0.569800    0.201313    0.233775     0.007504
PD605   PD        0.569071    0.237415    0.267243     0.005394
AU606   AU        0.600768    0.201521    0.268824     0.007504
PD607   PD        0.601805    0.236556    0.229931     0.005394
PD608   PD        0.634642    0.198799    0.236885     0.005394
PD609   PD        0.635046    0.236178    0.266093     0.005394
PD610   PD        0.668840    0.201779    0.269060     0.005394
PD611   PD        0.670708    0.236219    0.235192     0.005394
AU612   AU        0.701809    0.233201    0.266679     0.007504
PD613   PD        0.065851    0.319488    0.234513     0.005394
PD614   PD        0.142375    0.272309    0.264655     0.005394
PD615   PD        0.140053    0.307174    0.231195     0.005394
PD616   PD        0.173708    0.275283    0.231238     0.005394
AU617   AU        0.172905    0.307658    0.268264     0.007504
AU618   AU        0.204030    0.271985    0.266796     0.007504
PD619   PD        0.201635    0.306158    0.231365     0.005394
AU620   AU        0.235406    0.270857    0.234452     0.007504
PD621   PD        0.237340    0.307347    0.266343     0.005394
AU622   AU        0.269670    0.271790    0.266498     0.007504
AU623   AU        0.272415    0.307505    0.233874     0.007504
AU624   AU        0.304944    0.271101    0.233881     0.007504
PD625   PD        0.303306    0.306749    0.266269     0.005394
PD626   PD        0.337709    0.271185    0.266096     0.005394
PD627   PD        0.337755    0.304896    0.232199     0.005394
AU628   AU        0.370245    0.272213    0.232022     0.007504
AU629   AU        0.370137    0.306309    0.263669     0.007504
AU630   AU        0.402995    0.273078    0.263781     0.007504
PD631   PD        0.405372    0.307362    0.233083     0.005394
AU632   AU        0.437326    0.271911    0.234044     0.007504
AU633   AU        0.437700    0.306301    0.265640     0.007504
PD634   PD        0.469828    0.269496    0.267386     0.005394
AU635   AU        0.470223    0.306742    0.234430     0.007504
PD636   PD        0.504543    0.269398    0.231214     0.005394
AU637   AU        0.502057    0.308509    0.265984     0.007504
PD638   PD        0.534939    0.269365    0.267007     0.005394
AU639   AU        0.537017    0.307824    0.231696     0.007504
PD640   PD        0.567780    0.269835    0.231342     0.005394
PD641   PD        0.570681    0.305477    0.263948     0.005394
PD642   PD        0.605452    0.270723    0.265300     0.005394
PD643   PD        0.602747    0.306934    0.231871     0.005394
PD644   PD        0.634200    0.267002    0.232837     0.005394
AU645   AU        0.635826    0.306525    0.266406     0.007504
AU646   AU        0.668755    0.271793    0.264922     0.007504
PD647   PD        0.669232    0.308281    0.233341     0.005394
PD648   PD        0.701808    0.270835    0.230647     0.005394
AU649   AU        0.700997    0.307417    0.265959     0.007504
PD650   PD        0.733814    0.273452    0.266682     0.005394
PD651   PD        0.733794    0.309958    0.234942     0.005394
PD652   PD        0.767316    0.305703    0.266417     0.005394
PD653   PD        0.107925    0.374525    0.266066     0.005394
AU654   AU        0.141045    0.340752    0.264057     0.007504
AU655   AU        0.140236    0.377853    0.231585     0.007504
AU656   AU        0.172929    0.341492    0.231396     0.007504
PD657   PD        0.172217    0.379654    0.264069     0.005394
AU658   AU        0.206610    0.343990    0.263704     0.007504
AU659   AU        0.206262    0.377627    0.231208     0.007504
PD660   PD        0.238134    0.338438    0.230511     0.005394
AU661   AU        0.237478    0.377303    0.265220     0.007504
AU662   AU        0.270740    0.341948    0.264966     0.007504
AU663   AU        0.270513    0.376070    0.231430     0.007504
AU664   AU        0.304835    0.342454    0.232907     0.007504
AU665   AU        0.305098    0.377920    0.263173     0.007504
AU666   AU        0.337748    0.340522    0.266289     0.007504
AU667   AU        0.337727    0.378608    0.231278     0.007504
PD668   PD        0.370057    0.340970    0.231624     0.005394
AU669   AU        0.369949    0.376631    0.267962     0.007504
AU670   AU        0.405374    0.341803    0.265904     0.007504
AU671   AU        0.403710    0.377656    0.233028     0.007504
PD672   PD        0.435887    0.340807    0.229816     0.005394
AU673   AU        0.435529    0.376775    0.266810     0.007504
AU674   AU        0.468168    0.343101    0.264357     0.007504
AU675   AU        0.468255    0.377440    0.230348     0.007504
AU676   AU        0.504069    0.343211    0.233767     0.007504
AU677   AU        0.502609    0.377765    0.265872     0.007504
AU678   AU        0.536564    0.343396    0.266657     0.007504
PD679   PD        0.537745    0.377515    0.232780     0.005394
AU680   AU        0.569941    0.342919    0.231023     0.007504
AU681   AU        0.570469    0.378885    0.264097     0.007504
AU682   AU        0.603346    0.342282    0.267471     0.007504
PD683   PD        0.603772    0.375724    0.232379     0.005394
PD684   PD        0.637208    0.342177    0.230565     0.005394
PD685   PD        0.635136    0.378329    0.268611     0.005394
PD686   PD        0.668926    0.342459    0.265932     0.005394
AU687   AU        0.667077    0.377779    0.234082     0.007504
AU688   AU        0.702959    0.343156    0.232911     0.007504
AU689   AU        0.701816    0.379537    0.267876     0.007504
AU690   AU        0.734820    0.342403    0.266986     0.007504
AU691   AU        0.734638    0.377292    0.231701     0.007504
PD692   PD        0.768024    0.376072    0.265580     0.005394
PD693   PD        0.041333    0.368474    0.259141     0.005394
PD694   PD        0.109571    0.412224    0.234610     0.005394
PD695   PD        0.108346    0.448846    0.266656     0.005394
PD696   PD        0.141691    0.413656    0.266631     0.005394
AU697   AU        0.139015    0.449528    0.232806     0.007504
AU698   AU        0.171918    0.414688    0.233399     0.007504
AU699   AU        0.170799    0.450303    0.264722     0.007504
AU700   AU        0.205820    0.414071    0.263936     0.007504
PD701   PD        0.204210    0.451646    0.234954     0.005394
PD702   PD        0.237457    0.413878    0.230345     0.005394
AU703   AU        0.237714    0.449617    0.266821     0.007504
AU704   AU        0.269992    0.412694    0.266308     0.007504
AU705   AU        0.271985    0.447983    0.233824     0.007504
AU706   AU        0.303081    0.412445    0.233052     0.007504
AU707   AU        0.304155    0.449550    0.266358     0.007504
PD708   PD        0.336340    0.413434    0.264999     0.005394
PD709   PD        0.337271    0.448144    0.232278     0.005394
AU710   AU        0.369796    0.413381    0.232183     0.007504
AU711   AU        0.368767    0.447532    0.266245     0.007504
PD712   PD        0.402250    0.413875    0.266419     0.005394
AU713   AU        0.404558    0.448130    0.233643     0.007504
AU714   AU        0.437751    0.412430    0.232426     0.007504
PD715   PD        0.435950    0.450674    0.265869     0.005394
AU716   AU        0.469138    0.412896    0.264374     0.007504
AU717   AU        0.470229    0.450831    0.232185     0.007504
AU718   AU        0.502252    0.412754    0.232455     0.007504
AU719   AU        0.503702    0.448398    0.265718     0.007504
PD720   PD        0.535227    0.410825    0.265720     0.005394
AU721   AU        0.535615    0.447245    0.232666     0.007504
AU722   AU        0.571140    0.412532    0.232189     0.007504
AU723   AU        0.568682    0.447163    0.265098     0.007504
PD724   PD        0.603976    0.412791    0.266188     0.005394
AU725   AU        0.604568    0.448322    0.232642     0.007504
AU726   AU        0.635427    0.412407    0.232139     0.007504
AU727   AU        0.638449    0.449432    0.265979     0.007504
PD728   PD        0.669379    0.411885    0.266776     0.005394
AU729   AU        0.668251    0.448478    0.231428     0.007504
AU730   AU        0.700038    0.411679    0.231403     0.007504
AU731   AU        0.702589    0.447313    0.267485     0.007504
AU732   AU        0.734229    0.411310    0.265297     0.007504
PD733   PD        0.733787    0.448028    0.233196     0.005394
AU734   AU        0.766857    0.412659    0.232814     0.007504
AU735   AU        0.766736    0.449182    0.265803     0.007504
PD736   PD        0.841499    0.453639    0.273899     0.005394
PD737   PD        0.037937    0.521427    0.270321     0.005394
PD738   PD        0.010875    0.442385    0.158196     0.005394
AU739   AU        0.104650    0.520351    0.265861     0.007504
AU740   AU        0.137557    0.486643    0.266003     0.007504
PD741   PD        0.138888    0.522087    0.230512     0.005394
AU742   AU        0.172995    0.486272    0.233464     0.007504
AU743   AU        0.170640    0.522373    0.265821     0.007504
AU744   AU        0.203374    0.484964    0.265697     0.007504
AU745   AU        0.205138    0.521025    0.229450     0.007504
PD746   PD        0.238284    0.486440    0.230320     0.005394
AU747   AU        0.237294    0.522520    0.263498     0.007504
AU748   AU        0.271467    0.487136    0.264775     0.007504
AU749   AU        0.270410    0.520815    0.230680     0.007504
PD750   PD        0.302902    0.482978    0.231409     0.005394
AU751   AU        0.304255    0.521028    0.262819     0.007504
PD752   PD        0.336706    0.488015    0.267213     0.005394
AU753   AU        0.336645    0.521257    0.231388     0.007504
AU754   AU        0.370771    0.483505    0.234450     0.007504
AU755   AU        0.369468    0.522146    0.266099     0.007504
PD756   PD        0.403408    0.487055    0.266800     0.005394
AU757   AU        0.402653    0.519752    0.232754     0.007504
PD758   PD        0.435482    0.486711    0.233788     0.005394
PD759   PD        0.437406    0.522606    0.266893     0.005394
PD760   PD        0.470489    0.487684    0.268115     0.005394
AU761   AU        0.470863    0.520089    0.231911     0.007504
PD762   PD        0.505274    0.485483    0.234958     0.005394
AU763   AU        0.503167    0.521657    0.268099     0.007504
PD764   PD        0.536035    0.485346    0.264741     0.005394
PD765   PD        0.538717    0.519652    0.230794     0.005394
PD766   PD        0.571257    0.482346    0.231156     0.005394
AU767   AU        0.569933    0.519578    0.265127     0.007504
AU768   AU        0.602905    0.482919    0.265822     0.007504
AU769   AU        0.602943    0.518103    0.231628     0.007504
AU770   AU        0.635772    0.483315    0.232938     0.007504
AU771   AU        0.636985    0.517746    0.265457     0.007504
AU772   AU        0.669665    0.484223    0.265625     0.007504
AU773   AU        0.668584    0.520523    0.233335     0.007504
AU774   AU        0.703016    0.483562    0.231780     0.007504
AU775   AU        0.701110    0.517435    0.267191     0.007504
AU776   AU        0.734671    0.482718    0.266233     0.007504
AU777   AU        0.733243    0.519114    0.235282     0.007504
PD778   PD        0.768983    0.485785    0.234185     0.005394
AU779   AU        0.766258    0.520789    0.266118     0.007504
AU780   AU        0.798958    0.485031    0.266332     0.007504
PD781   PD        0.072827    0.586043    0.233335     0.005394
PD782   PD        0.103879    0.559661    0.231142     0.005394
PD783   PD        0.103482    0.586031    0.267901     0.005394
AU784   AU        0.139044    0.555639    0.264383     0.007504
AU785   AU        0.140711    0.591942    0.232943     0.007504
AU786   AU        0.173506    0.555112    0.230058     0.007504
AU787   AU        0.172573    0.591805    0.265799     0.007504
AU788   AU        0.203850    0.554665    0.263315     0.007504
PD789   PD        0.204879    0.591148    0.231183     0.005394
AU790   AU        0.236462    0.555733    0.232439     0.007504
AU791   AU        0.237132    0.589656    0.264679     0.007504
AU792   AU        0.271119    0.558125    0.263489     0.007504
AU793   AU        0.269888    0.589381    0.229981     0.007504
AU794   AU        0.304240    0.556643    0.230919     0.007504
AU795   AU        0.303204    0.592580    0.264896     0.007504
AU796   AU        0.337426    0.557786    0.265127     0.007504
AU797   AU        0.337459    0.592322    0.231674     0.007504
AU798   AU        0.370457    0.554746    0.234171     0.007504
AU799   AU        0.370500    0.591452    0.264887     0.007504
AU800   AU        0.405044    0.556567    0.266036     0.007504
PD801   PD        0.403671    0.590654    0.233887     0.005394
AU802   AU        0.436286    0.555366    0.234619     0.007504
AU803   AU        0.437000    0.592207    0.266693     0.007504
AU804   AU        0.469235    0.555466    0.268091     0.007504
AU805   AU        0.467897    0.589671    0.232326     0.007504
AU806   AU        0.501657    0.555169    0.233844     0.007504
PD807   PD        0.502357    0.592119    0.266859     0.005394
AU808   AU        0.536307    0.555942    0.263901     0.007504
PD809   PD        0.535990    0.590699    0.232335     0.005394
PD810   PD        0.568418    0.558192    0.231313     0.005394
AU811   AU        0.571480    0.592385    0.266185     0.007504
PD812   PD        0.602484    0.552432    0.263861     0.005394
PD813   PD        0.603124    0.589043    0.232889     0.005394
PD814   PD        0.635057    0.553058    0.232011     0.005394
PD815   PD        0.633489    0.590917    0.265899     0.005394
PD816   PD        0.667637    0.555501    0.264746     0.005394
AU817   AU        0.666326    0.589505    0.234399     0.007504
PD818   PD        0.701482    0.551073    0.234120     0.005394
AU819   AU        0.702425    0.590077    0.267515     0.007504
PD820   PD        0.735444    0.556293    0.268150     0.005394
AU821   AU        0.734077    0.589522    0.235249     0.007504
PD822   PD        0.769342    0.555988    0.233562     0.005394
PD823   PD        0.769943    0.591280    0.268628     0.005394
PD824   PD        0.804007    0.555332    0.267481     0.005394
PD825   PD        0.103769    0.667150    0.272554     0.005394
PD826   PD        0.137820    0.629182    0.265776     0.005394
PD827   PD        0.142996    0.662781    0.230117     0.005394
PD828   PD        0.171371    0.625112    0.231655     0.005394
PD829   PD        0.171289    0.665592    0.265717     0.005394
PD830   PD        0.204129    0.624929    0.263769     0.005394
PD831   PD        0.205002    0.662491    0.231710     0.005394
AU832   AU        0.238601    0.626565    0.231413     0.007504
PD833   PD        0.236011    0.661985    0.263220     0.005394
AU834   AU        0.270662    0.625225    0.264139     0.007504
PD835   PD        0.271601    0.664580    0.234134     0.005394
PD836   PD        0.303424    0.626739    0.232210     0.005394
PD837   PD        0.303005    0.660931    0.264146     0.005394
AU838   AU        0.337250    0.626307    0.264619     0.007504
PD839   PD        0.339490    0.659028    0.232762     0.005394
PD840   PD        0.369207    0.629422    0.232039     0.005394
PD841   PD        0.372589    0.662222    0.266674     0.005394
AU842   AU        0.402260    0.625991    0.265724     0.007504
AU843   AU        0.401824    0.664520    0.233380     0.007504
PD844   PD        0.436957    0.627348    0.234171     0.005394
AU845   AU        0.435225    0.662400    0.262823     0.007504
AU846   AU        0.468880    0.628161    0.265447     0.007504
AU847   AU        0.468991    0.663533    0.232310     0.007504
PD848   PD        0.500299    0.628471    0.232350     0.005394
AU849   AU        0.502328    0.661705    0.264263     0.007504
AU850   AU        0.536720    0.628316    0.264611     0.007504
AU851   AU        0.535980    0.662974    0.232743     0.007504
PD852   PD        0.567575    0.626510    0.230702     0.005394
PD853   PD        0.570226    0.661842    0.266399     0.005394
AU854   AU        0.603066    0.629014    0.267266     0.007504
PD855   PD        0.604818    0.661432    0.231397     0.005394
PD856   PD        0.635082    0.624101    0.234059     0.005394
PD857   PD        0.640445    0.662748    0.265537     0.005394
PD858   PD        0.668778    0.625984    0.265918     0.005394
AU859   AU        0.669193    0.662089    0.231350     0.007504
AU860   AU        0.701104    0.625923    0.235294     0.007504
PD861   PD        0.702924    0.661056    0.264622     0.005394
AU862   AU        0.735403    0.625141    0.266775     0.007504
PD863   PD        0.735468    0.660703    0.230763     0.005394
PD864   PD        0.768177    0.659601    0.264654     0.005394
PD865   PD        0.135087    0.696840    0.263819     0.005394
PD866   PD        0.171810    0.696217    0.231082     0.005394
AU867   AU        0.172355    0.733216    0.265947     0.007504
PD868   PD        0.204079    0.698516    0.265269     0.005394
PD869   PD        0.202302    0.730865    0.228456     0.005394
AU870   AU        0.236431    0.698563    0.233753     0.007504
PD871   PD        0.235364    0.734168    0.264366     0.005394
PD872   PD        0.272056    0.697467    0.264348     0.005394
AU873   AU        0.271235    0.733519    0.231816     0.007504
PD874   PD        0.303656    0.698214    0.230581     0.005394
PD875   PD        0.304932    0.734736    0.263599     0.005394
PD876   PD        0.337199    0.698542    0.263727     0.005394
PD877   PD        0.337182    0.736122    0.232220     0.005394
AU878   AU        0.370500    0.698862    0.230935     0.007504
AU879   AU        0.368857    0.734512    0.265531     0.007504
AU880   AU        0.402245    0.699949    0.264938     0.007504
AU881   AU        0.402011    0.735274    0.232629     0.007504
AU882   AU        0.437560    0.700769    0.232473     0.007504
AU883   AU        0.434670    0.735431    0.266019     0.007504
AU884   AU        0.469238    0.697177    0.266654     0.007504
PD885   PD        0.470950    0.734634    0.236096     0.005394
AU886   AU        0.501939    0.697573    0.232319     0.007504
PD887   PD        0.503324    0.732327    0.265684     0.005394
PD888   PD        0.536182    0.699621    0.263495     0.005394
PD889   PD        0.534690    0.734753    0.233763     0.005394
PD890   PD        0.568507    0.693210    0.232097     0.005394
AU891   AU        0.568842    0.732726    0.262990     0.007504
PD892   PD        0.604703    0.699933    0.265420     0.005394
PD893   PD        0.600673    0.732434    0.232860     0.005394
AU894   AU        0.635557    0.697320    0.232607     0.007504
PD895   PD        0.635162    0.731255    0.270195     0.005394
PD896   PD        0.672791    0.696712    0.264769     0.005394
PD897   PD        0.665100    0.733477    0.236299     0.005394
PD898   PD        0.697720    0.696041    0.236030     0.005394
PD899   PD        0.700855    0.732370    0.264439     0.005394
PD900   PD        0.734774    0.697162    0.265326     0.005394
PD901   PD        0.205088    0.768739    0.261197     0.005394
PD902   PD        0.240650    0.770614    0.229267     0.005394
PD903   PD        0.230873    0.842495    0.237060     0.005394
PD904   PD        0.271366    0.768865    0.264093     0.005394
PD905   PD        0.272041    0.806590    0.228552     0.005394
AU906   AU        0.303270    0.770453    0.229155     0.007504
AU907   AU        0.304388    0.807177    0.264219     0.007504
AU908   AU        0.337413    0.770680    0.264286     0.007504
AU909   AU        0.338076    0.806846    0.231580     0.007504
AU910   AU        0.368928    0.769745    0.231883     0.007504
PD911   PD        0.369523    0.804820    0.264854     0.005394
AU912   AU        0.401991    0.769764    0.265397     0.007504
AU913   AU        0.404587    0.803687    0.231937     0.007504
PD914   PD        0.434498    0.769861    0.233303     0.005394
AU915   AU        0.436213    0.804268    0.267025     0.007504
AU916   AU        0.468294    0.770178    0.266355     0.007504
PD917   PD        0.468964    0.806217    0.233401     0.005394
PD918   PD        0.504086    0.768895    0.233565     0.005394
PD919   PD        0.501332    0.804715    0.265064     0.005394
AU920   AU        0.534394    0.769639    0.265100     0.007504
PD921   PD        0.534282    0.803610    0.232928     0.005394
AU922   AU        0.567321    0.767775    0.231397     0.007504
AU923   AU        0.569244    0.803156    0.267701     0.007504
AU924   AU        0.600695    0.767491    0.264693     0.007504
AU925   AU        0.601891    0.805552    0.232477     0.007504
PD926   PD        0.638997    0.773298    0.234752     0.005394
PD927   PD        0.630763    0.804364    0.266844     0.005394
PD928   PD        0.671068    0.768579    0.270519     0.005394
PD929   PD        0.268087    0.839805    0.262917     0.005394
PD930   PD        0.337229    0.838012    0.267054     0.005394
AU931   AU        0.370298    0.839289    0.232326     0.007504
PD932   PD        0.372933    0.874567    0.262662     0.005394
AU933   AU        0.402074    0.837712    0.266066     0.007504
AU934   AU        0.434724    0.839870    0.232102     0.007504
PD935   PD        0.433730    0.872601    0.265648     0.005394
AU936   AU        0.466826    0.838035    0.266184     0.007504
PD937   PD        0.501049    0.841308    0.232822     0.005394
PD938   PD        0.503482    0.875525    0.262797     0.005394
AU939   AU        0.535221    0.837012    0.265851     0.007504
PD940   PD        0.601393    0.838125    0.269519     0.005394
PD941   PD        0.306172    0.096157    0.332571     0.005394
PD942   PD        0.339072    0.096698    0.298231     0.005394
PD943   PD        0.369463    0.097907    0.334081     0.005394
AU944   AU        0.403931    0.094782    0.301505     0.007504
PD945   PD        0.436844    0.097806    0.334030     0.005394
AU946   AU        0.468763    0.097278    0.302417     0.007504
AU947   AU        0.502691    0.094785    0.333581     0.007504
PD948   PD        0.500570    0.063878    0.297753     0.005394
PD949   PD        0.531031    0.078608    0.279153     0.005394
PD950   PD        0.207642    0.167310    0.299916     0.005394
AU951   AU        0.239910    0.165551    0.330735     0.007504
PD952   PD        0.272780    0.133483    0.332443     0.005394
PD953   PD        0.272086    0.165377    0.297554     0.005394
AU954   AU        0.304100    0.129612    0.299183     0.007504
AU955   AU        0.304626    0.166656    0.332191     0.007504
AU956   AU        0.338247    0.131489    0.332284     0.007504
AU957   AU        0.337021    0.165342    0.298596     0.007504
AU958   AU        0.370290    0.131284    0.300900     0.007504
AU959   AU        0.371994    0.166943    0.333077     0.007504
AU960   AU        0.402963    0.131358    0.331674     0.007504
AU961   AU        0.403962    0.166535    0.300836     0.007504
PD962   PD        0.435357    0.131889    0.299184     0.005394
AU963   AU        0.436191    0.165922    0.333062     0.007504
PD964   PD        0.468541    0.131389    0.333702     0.005394
AU965   AU        0.467870    0.166791    0.300430     0.007504
PD966   PD        0.503250    0.131845    0.298878     0.005394
AU967   AU        0.500842    0.165185    0.331717     0.007504
PD968   PD        0.534828    0.131004    0.332866     0.005394
PD969   PD        0.534990    0.164733    0.300028     0.005394
PD970   PD        0.569712    0.131342    0.301463     0.005394
AU971   AU        0.569729    0.166362    0.334198     0.007504
PD972   PD        0.598770    0.130880    0.333528     0.005394
AU973   AU        0.602761    0.163750    0.301272     0.007504
AU974   AU        0.635674    0.165387    0.332010     0.007504
AU975   AU        0.671158    0.166342    0.301010     0.007504
PD976   PD        0.138706    0.235873    0.298741     0.005394
PD977   PD        0.132819    0.200664    0.269771     0.005394
PD978   PD        0.172255    0.241451    0.331536     0.005394
PD979   PD        0.203381    0.199612    0.332855     0.005394
AU980   AU        0.204487    0.234618    0.295940     0.007504
PD981   PD        0.239450    0.199134    0.297756     0.005394
AU982   AU        0.236764    0.233911    0.332752     0.007504
AU983   AU        0.271840    0.201319    0.331292     0.007504
PD984   PD        0.271887    0.235987    0.297851     0.005394
AU985   AU        0.304570    0.199950    0.299361     0.007504
AU986   AU        0.304272    0.235829    0.331641     0.007504
AU987   AU        0.339497    0.199744    0.332605     0.007504
AU988   AU        0.336163    0.235599    0.299536     0.007504
AU989   AU        0.371443    0.201255    0.298318     0.007504
AU990   AU        0.370379    0.235618    0.330642     0.007504
AU991   AU        0.403465    0.202681    0.333805     0.007504
PD992   PD        0.403347    0.234007    0.298143     0.005394
AU993   AU        0.437399    0.201035    0.299708     0.007504
AU994   AU        0.436461    0.236110    0.333154     0.007504
AU995   AU        0.468623    0.201301    0.333563     0.007504
AU996   AU        0.470106    0.235483    0.299578     0.007504
AU997   AU        0.502877    0.199752    0.300083     0.007504
AU998   AU        0.503658    0.233887    0.334155     0.007504
PD999   PD        0.535117    0.199261    0.331353     0.005394
PD1000   PD        0.536777    0.232832    0.297874     0.005394
PD1001   PD        0.569203    0.197760    0.302572     0.005394
PD1002   PD        0.571582    0.235891    0.334771     0.005394
PD1003   PD        0.603527    0.203527    0.335456     0.005394
PD1004   PD        0.604063    0.234610    0.299240     0.005394
AU1005   AU        0.634241    0.200250    0.300021     0.007504
PD1006   PD        0.634905    0.235432    0.333125     0.005394
AU1007   AU        0.670429    0.202891    0.331932     0.007504
AU1008   AU        0.668163    0.238856    0.300400     0.007504
PD1009   PD        0.791201    0.156465    0.294218     0.005394
PD1010   PD        0.703709    0.236412    0.333093     0.005394
PD1011   PD        0.733431    0.234189    0.299831     0.005394
PD1012   PD        0.106878    0.308951    0.333101     0.005394
PD1013   PD        0.139408    0.273041    0.331405     0.005394
AU1014   AU        0.140065    0.308688    0.300291     0.007504
PD1015   PD        0.172538    0.275861    0.299702     0.005394
PD1016   PD        0.172526    0.309293    0.330914     0.005394
PD1017   PD        0.205047    0.271426    0.332164     0.005394
AU1018   AU        0.208174    0.307484    0.299396     0.007504
PD1019   PD        0.237975    0.269181    0.299106     0.005394
AU1020   AU        0.239962    0.305817    0.332196     0.007504
AU1021   AU        0.271727    0.270589    0.331820     0.007504
AU1022   AU        0.270647    0.306622    0.299124     0.007504
AU1023   AU        0.303264    0.270385    0.299931     0.007504
AU1024   AU        0.303837    0.307824    0.332516     0.007504
AU1025   AU        0.336502    0.270372    0.330355     0.007504
AU1026   AU        0.335752    0.308654    0.299844     0.007504
AU1027   AU        0.368922    0.269931    0.296968     0.007504
AU1028   AU        0.369109    0.306252    0.331603     0.007504
AU1029   AU        0.404550    0.269460    0.332923     0.007504
PD1030   PD        0.401127    0.303891    0.300272     0.005394
AU1031   AU        0.436149    0.270246    0.299370     0.007504
AU1032   AU        0.436934    0.305925    0.333578     0.007504
AU1033   AU        0.470669    0.272011    0.334119     0.007504
PD1034   PD        0.471524    0.308548    0.299080     0.005394
PD1035   PD        0.501088    0.273561    0.299907     0.005394
AU1036   AU        0.502932    0.307660    0.333962     0.007504
AU1037   AU        0.536921    0.270729    0.330569     0.007504
AU1038   AU        0.534852    0.306795    0.298758     0.007504
AU1039   AU        0.568694    0.268321    0.300065     0.007504
PD1040   PD        0.568148    0.307858    0.331990     0.005394
PD1041   PD        0.604252    0.272060    0.331858     0.005394
PD1042   PD        0.601395    0.303340    0.299937     0.005394
PD1043   PD        0.636439    0.271804    0.301141     0.005394
AU1044   AU        0.637001    0.305591    0.333263     0.007504
AU1045   AU        0.669460    0.271290    0.333700     0.007504
AU1046   AU        0.670938    0.308236    0.299946     0.007504
AU1047   AU        0.702861    0.272057    0.299298     0.007504
PD1048   PD        0.701494    0.306807    0.331818     0.005394
PD1049   PD        0.737446    0.270478    0.332231     0.005394
AU1050   AU        0.734491    0.308209    0.299115     0.007504
AU1051   AU        0.768177    0.305780    0.330671     0.007504
PD1052   PD        0.071956    0.343230    0.334375     0.005394
AU1053   AU        0.071774    0.377448    0.296946     0.007504
AU1054   AU        0.105086    0.339692    0.299689     0.007504
AU1055   AU        0.106778    0.375330    0.331757     0.007504
AU1056   AU        0.139844    0.342400    0.332568     0.007504
AU1057   AU        0.137573    0.376349    0.298811     0.007504
PD1058   PD        0.169696    0.342737    0.297101     0.005394
AU1059   AU        0.170291    0.376718    0.332148     0.007504
AU1060   AU        0.204687    0.343735    0.331100     0.007504
PD1061   PD        0.202667    0.379759    0.297792     0.005394
PD1062   PD        0.239311    0.342453    0.298130     0.005394
AU1063   AU        0.237819    0.379482    0.331045     0.007504
AU1064   AU        0.270157    0.342228    0.331094     0.007504
AU1065   AU        0.271483    0.378108    0.297289     0.007504
AU1066   AU        0.303126    0.344399    0.298584     0.007504
PD1067   PD        0.303067    0.379134    0.333888     0.005394
AU1068   AU        0.337090    0.342757    0.332344     0.007504
AU1069   AU        0.336761    0.377427    0.298913     0.007504
AU1070   AU        0.371010    0.339434    0.298049     0.007504
AU1071   AU        0.368685    0.377073    0.330982     0.007504
AU1072   AU        0.402777    0.341366    0.331616     0.007504
AU1073   AU        0.404497    0.375912    0.299225     0.007504
AU1074   AU        0.437644    0.341214    0.300072     0.007504
AU1075   AU        0.436664    0.378427    0.331702     0.007504
AU1076   AU        0.469482    0.342810    0.331821     0.007504
AU1077   AU        0.471312    0.379239    0.298355     0.007504
AU1078   AU        0.502723    0.341568    0.298309     0.007504
AU1079   AU        0.503544    0.377460    0.335249     0.007504
PD1080   PD        0.534405    0.342579    0.330911     0.005394
AU1081   AU        0.533975    0.376586    0.300074     0.007504
AU1082   AU        0.568200    0.342897    0.299332     0.007504
PD1083   PD        0.568233    0.378892    0.336226     0.005394
PD1084   PD        0.603163    0.341692    0.332302     0.005394
AU1085   AU        0.603587    0.378022    0.300487     0.007504
AU1086   AU        0.634711    0.342113    0.301459     0.007504
AU1087   AU        0.636835    0.379069    0.333525     0.007504
AU1088   AU        0.668128    0.341877    0.333630     0.007504
AU1089   AU        0.669073    0.376833    0.299443     0.007504
PD1090   PD        0.702572    0.342204    0.299076     0.005394
PD1091   PD        0.703260    0.377676    0.332140     0.005394
PD1092   PD        0.734313    0.341687    0.332535     0.005394
PD1093   PD        0.735274    0.375564    0.300022     0.005394
AU1094   AU        0.768017    0.343315    0.301112     0.007504
AU1095   AU        0.767376    0.377472    0.332480     0.007504
PD1096   PD        0.799515    0.340140    0.333942     0.005394
PD1097   PD        0.802565    0.376587    0.301032     0.005394
PD1098   PD        0.070369    0.409358    0.329149     0.005394
PD1099   PD        0.037573    0.445196    0.330964     0.005394
PD1100   PD        0.105080    0.409823    0.297548     0.005394
AU1101   AU        0.106704    0.445875    0.330138     0.007504
AU1102   AU        0.139577    0.414542    0.331592     0.007504
PD1103   PD        0.137501    0.449840    0.297517     0.005394
PD1104   PD        0.172950    0.416145    0.297233     0.005394
PD1105   PD        0.171554    0.451751    0.331743     0.005394
PD1106   PD        0.205158    0.414320    0.333209     0.005394
PD1107   PD        0.204239    0.448343    0.298561     0.005394
PD1108   PD        0.236426    0.411136    0.298234     0.005394
AU1109   AU        0.237390    0.448991    0.331105     0.007504
AU1110   AU        0.269656    0.414195    0.330536     0.007504
AU1111   AU        0.270004    0.447897    0.297193     0.007504
AU1112   AU        0.304786    0.413751    0.299970     0.007504
AU1113   AU        0.302086    0.447848    0.329768     0.007504
AU1114   AU        0.336101    0.412523    0.333384     0.007504
AU1115   AU        0.336382    0.450529    0.298274     0.007504
AU1116   AU        0.370042    0.413378    0.299039     0.007504
AU1117   AU        0.367819    0.448941    0.331930     0.007504
AU1118   AU        0.402058    0.413946    0.331560     0.007504
PD1119   PD        0.404403    0.447616    0.300688     0.005394
AU1120   AU        0.435418    0.412876    0.298179     0.007504
AU1121   AU        0.438531    0.448871    0.330491     0.007504
AU1122   AU        0.469978    0.412131    0.331045     0.007504
AU1123   AU        0.470281    0.447681    0.296970     0.007504
AU1124   AU        0.502668    0.412281    0.295565     0.007504
PD1125   PD        0.503616    0.448888    0.332428     0.005394
AU1126   AU        0.535066    0.414369    0.330853     0.007504
AU1127   AU        0.537467    0.447739    0.297590     0.007504
AU1128   AU        0.569248    0.410574    0.297901     0.007504
PD1129   PD        0.567616    0.450321    0.330986     0.005394
AU1130   AU        0.601033    0.414328    0.333424     0.007504
AU1131   AU        0.602915    0.445647    0.300176     0.007504
AU1132   AU        0.636859    0.413778    0.299347     0.007504
AU1133   AU        0.638090    0.448056    0.331930     0.007504
AU1134   AU        0.670042    0.412556    0.332753     0.007504
AU1135   AU        0.670192    0.447766    0.299789     0.007504
AU1136   AU        0.701411    0.412411    0.300053     0.007504
AU1137   AU        0.703253    0.448062    0.330900     0.007504
AU1138   AU        0.736549    0.412489    0.330512     0.007504
PD1139   PD        0.736170    0.446979    0.298929     0.005394
PD1140   PD        0.768830    0.412577    0.296493     0.005394
PD1141   PD        0.766506    0.450783    0.333547     0.005394
AU1142   AU        0.800333    0.415481    0.333228     0.007504
PD1143   PD        0.800228    0.446061    0.297102     0.005394
PD1144   PD        0.072776    0.483585    0.330615     0.005394
PD1145   PD        0.077109    0.521769    0.300096     0.005394
AU1146   AU        0.105876    0.485106    0.298188     0.007504
PD1147   PD        0.104020    0.521087    0.328994     0.005394
PD1148   PD        0.137517    0.486242    0.332625     0.005394
AU1149   AU        0.139587    0.518582    0.299733     0.007504
AU1150   AU        0.172030    0.484899    0.297652     0.007504
PD1151   PD        0.170674    0.519548    0.332723     0.005394
PD1152   PD        0.205158    0.482292    0.330488     0.005394
AU1153   AU        0.204038    0.519854    0.298067     0.007504
AU1154   AU        0.238144    0.487072    0.296538     0.007504
PD1155   PD        0.237352    0.519539    0.331036     0.005394
AU1156   AU        0.268626    0.484716    0.329022     0.007504
AU1157   AU        0.270619    0.521712    0.299400     0.007504
AU1158   AU        0.301473    0.485927    0.297594     0.007504
AU1159   AU        0.303730    0.520689    0.331820     0.007504
AU1160   AU        0.335622    0.483953    0.330455     0.007504
AU1161   AU        0.336341    0.521750    0.297262     0.007504
AU1162   AU        0.368289    0.484153    0.299557     0.007504
AU1163   AU        0.370285    0.522155    0.330077     0.007504
PD1164   PD        0.404842    0.486972    0.330414     0.005394
AU1165   AU        0.404328    0.522477    0.299065     0.007504
PD1166   PD        0.437277    0.487042    0.299902     0.005394
PD1167   PD        0.438993    0.523180    0.331963     0.005394
AU1168   AU        0.471390    0.484821    0.333461     0.007504
AU1169   AU        0.470097    0.522842    0.299558     0.007504
AU1170   AU        0.503641    0.484308    0.299134     0.007504
AU1171   AU        0.503104    0.521402    0.330126     0.007504
AU1172   AU        0.537222    0.484243    0.331143     0.007504
AU1173   AU        0.538705    0.520414    0.299192     0.007504
PD1174   PD        0.569940    0.485540    0.297046     0.005394
AU1175   AU        0.570926    0.519960    0.330944     0.007504
AU1176   AU        0.603377    0.485303    0.330561     0.007504
AU1177   AU        0.604754    0.520651    0.297952     0.007504
AU1178   AU        0.635541    0.483022    0.299140     0.007504
AU1179   AU        0.636934    0.519948    0.333231     0.007504
AU1180   AU        0.668282    0.482720    0.331370     0.007504
PD1181   PD        0.667561    0.519224    0.297407     0.005394
AU1182   AU        0.702762    0.483144    0.298572     0.007504
AU1183   AU        0.699301    0.520428    0.330778     0.007504
AU1184   AU        0.734149    0.485569    0.332227     0.007504
PD1185   PD        0.735547    0.518523    0.298084     0.005394
AU1186   AU        0.765946    0.483740    0.299996     0.007504
AU1187   AU        0.766659    0.520310    0.333610     0.007504
PD1188   PD        0.800957    0.483837    0.333528     0.005394
PD1189   PD        0.800900    0.518523    0.302863     0.005394
PD1190   PD        0.070110    0.553302    0.333005     0.005394
PD1191   PD        0.071861    0.591044    0.302389     0.005394
PD1192   PD        0.108338    0.556894    0.296687     0.005394
PD1193   PD        0.105525    0.591445    0.331688     0.005394
PD1194   PD        0.137875    0.553627    0.330963     0.005394
AU1195   AU        0.138015    0.591104    0.297326     0.007504
PD1196   PD        0.168628    0.555866    0.297282     0.005394
PD1197   PD        0.172717    0.592337    0.331800     0.005394
PD1198   PD        0.202754    0.555428    0.332201     0.005394
PD1199   PD        0.202603    0.588477    0.297788     0.005394
PD1200   PD        0.237683    0.555106    0.296883     0.005394
PD1201   PD        0.236970    0.591206    0.330743     0.005394
AU1202   AU        0.271980    0.555456    0.331474     0.007504
AU1203   AU        0.269739    0.590233    0.297933     0.007504
PD1204   PD        0.304390    0.555230    0.295319     0.005394
AU1205   AU        0.302736    0.589951    0.332487     0.007504
AU1206   AU        0.336586    0.558336    0.332949     0.007504
AU1207   AU        0.336824    0.593263    0.299755     0.007504
AU1208   AU        0.370817    0.557425    0.298835     0.007504
AU1209   AU        0.370836    0.595300    0.331687     0.007504
AU1210   AU        0.403923    0.556042    0.330879     0.007504
AU1211   AU        0.402561    0.592865    0.299387     0.007504
AU1212   AU        0.437486    0.557032    0.299816     0.007504
AU1213   AU        0.436704    0.590779    0.331254     0.007504
AU1214   AU        0.471839    0.558798    0.329564     0.007504
AU1215   AU        0.470797    0.591075    0.297080     0.007504
PD1216   PD        0.505638    0.558127    0.299204     0.005394
AU1217   AU        0.504057    0.592442    0.331178     0.007504
AU1218   AU        0.537282    0.555788    0.331359     0.007504
PD1219   PD        0.538834    0.591928    0.297888     0.005394
AU1220   AU        0.572238    0.556369    0.299116     0.007504
AU1221   AU        0.569819    0.591146    0.333428     0.007504
PD1222   PD        0.602754    0.556267    0.332680     0.005394
PD1223   PD        0.601573    0.593695    0.300085     0.005394
PD1224   PD        0.635678    0.555777    0.300937     0.005394
PD1225   PD        0.634776    0.591386    0.330594     0.005394
PD1226   PD        0.668282    0.556751    0.333721     0.005394
PD1227   PD        0.667826    0.591556    0.298453     0.005394
AU1228   AU        0.701962    0.557315    0.299860     0.007504
PD1229   PD        0.700709    0.593498    0.331508     0.005394
AU1230   AU        0.733953    0.555404    0.330574     0.007504
AU1231   AU        0.735536    0.590728    0.299339     0.007504
AU1232   AU        0.769295    0.556238    0.298970     0.007504
AU1233   AU        0.767706    0.592652    0.331432     0.007504
AU1234   AU        0.801822    0.554916    0.332240     0.007504
PD1235   PD        0.802611    0.591216    0.300695     0.005394
PD1236   PD        0.073619    0.627768    0.332514     0.005394
AU1237   AU        0.105629    0.627038    0.298521     0.007504
PD1238   PD        0.104030    0.664410    0.330689     0.005394
AU1239   AU        0.139879    0.626060    0.331445     0.007504
AU1240   AU        0.138917    0.662248    0.298684     0.007504
PD1241   PD        0.174507    0.625775    0.296558     0.005394
AU1242   AU        0.170297    0.662807    0.331667     0.007504
AU1243   AU        0.204311    0.628481    0.331774     0.007504
PD1244   PD        0.203998    0.662000    0.296582     0.005394
PD1245   PD        0.234605    0.622832    0.297577     0.005394
AU1246   AU        0.238066    0.661458    0.330118     0.007504
AU1247   AU        0.270794    0.625429    0.331526     0.007504
AU1248   AU        0.269457    0.661105    0.296384     0.007504
AU1249   AU        0.303699    0.624985    0.299684     0.007504
AU1250   AU        0.302142    0.660977    0.329464     0.007504
PD1251   PD        0.338230    0.627422    0.330519     0.005394
PD1252   PD        0.334110    0.662287    0.297351     0.005394
AU1253   AU        0.370220    0.629629    0.298209     0.007504
AU1254   AU        0.371755    0.664292    0.329072     0.007504
AU1255   AU        0.404754    0.627221    0.330243     0.007504
AU1256   AU        0.404882    0.663419    0.297730     0.007504
AU1257   AU        0.437305    0.628710    0.297791     0.007504
AU1258   AU        0.436774    0.663088    0.330525     0.007504
AU1259   AU        0.468236    0.627056    0.332293     0.007504
AU1260   AU        0.469199    0.661378    0.297936     0.007504
AU1261   AU        0.501318    0.627599    0.297503     0.007504
AU1262   AU        0.502668    0.661116    0.331417     0.007504
AU1263   AU        0.534897    0.627328    0.331260     0.007504
AU1264   AU        0.534884    0.664110    0.298331     0.007504
PD1265   PD        0.568854    0.628400    0.298531     0.005394
PD1266   PD        0.572477    0.664205    0.330322     0.005394
PD1267   PD        0.604025    0.629210    0.331766     0.005394
PD1268   PD        0.601632    0.665243    0.299700     0.005394
PD1269   PD        0.639225    0.628781    0.299172     0.005394
AU1270   AU        0.637383    0.662296    0.334145     0.007504
AU1271   AU        0.668736    0.626823    0.331946     0.007504
AU1272   AU        0.671604    0.663187    0.301390     0.007504
AU1273   AU        0.703227    0.627598    0.298311     0.007504
AU1274   AU        0.702081    0.660204    0.333512     0.007504
AU1275   AU        0.734895    0.627360    0.330603     0.007504
AU1276   AU        0.736817    0.662736    0.298332     0.007504
PD1277   PD        0.767520    0.623529    0.298024     0.005394
PD1278   PD        0.766989    0.659197    0.333514     0.005394
PD1279   PD        0.799860    0.624286    0.334460     0.005394
AU1280   AU        0.138087    0.698306    0.328727     0.007504
PD1281   PD        0.136511    0.809612    0.297919     0.005394
AU1282   AU        0.172510    0.698367    0.297400     0.007504
PD1283   PD        0.171752    0.731359    0.334302     0.005394
AU1284   AU        0.203190    0.698931    0.331869     0.007504
AU1285   AU        0.202416    0.732840    0.296740     0.007504
PD1286   PD        0.238306    0.696170    0.297235     0.005394
PD1287   PD        0.237062    0.730732    0.331571     0.005394
PD1288   PD        0.271968    0.698116    0.328713     0.005394
AU1289   AU        0.272988    0.733281    0.297380     0.007504
PD1290   PD        0.303349    0.698132    0.298044     0.005394
PD1291   PD        0.305094    0.730828    0.332175     0.005394
PD1292   PD        0.338842    0.699226    0.330537     0.005394
PD1293   PD        0.336462    0.733396    0.297596     0.005394
AU1294   AU        0.369424    0.699151    0.298064     0.007504
AU1295   AU        0.370093    0.735281    0.329514     0.007504
PD1296   PD        0.403144    0.699990    0.332014     0.005394
PD1297   PD        0.401688    0.733172    0.297783     0.005394
AU1298   AU        0.436138    0.698661    0.298451     0.007504
AU1299   AU        0.435584    0.734193    0.332434     0.007504
AU1300   AU        0.468318    0.698587    0.332360     0.007504
AU1301   AU        0.468078    0.735224    0.296149     0.007504
AU1302   AU        0.502870    0.697532    0.299126     0.007504
PD1303   PD        0.500729    0.732649    0.331499     0.005394
PD1304   PD        0.535013    0.696344    0.330927     0.005394
PD1305   PD        0.534757    0.734105    0.295592     0.005394
PD1306   PD        0.569729    0.700279    0.298710     0.005394
PD1307   PD        0.566841    0.733830    0.332789     0.005394
AU1308   AU        0.603561    0.698043    0.332301     0.007504
PD1309   PD        0.601244    0.736264    0.300371     0.005394
PD1310   PD        0.637355    0.695478    0.299357     0.005394
PD1311   PD        0.636501    0.733210    0.333601     0.005394
AU1312   AU        0.671250    0.696916    0.331956     0.007504
AU1313   AU        0.670203    0.734226    0.301814     0.007504
AU1314   AU        0.703727    0.696320    0.298804     0.007504
AU1315   AU        0.703645    0.732387    0.331713     0.007504
PD1316   PD        0.738922    0.697864    0.333844     0.005394
PD1317   PD        0.738618    0.731760    0.299798     0.005394
PD1318   PD        0.168927    0.771746    0.303893     0.005394
PD1319   PD        0.204571    0.764570    0.330986     0.005394
PD1320   PD        0.204665    0.833349    0.263957     0.005394
PD1321   PD        0.235850    0.767086    0.300022     0.005394
PD1322   PD        0.239490    0.801326    0.330289     0.005394
PD1323   PD        0.272869    0.766545    0.331325     0.005394
PD1324   PD        0.271351    0.805450    0.296937     0.005394
PD1325   PD        0.303388    0.770964    0.296288     0.005394
PD1326   PD        0.301666    0.807230    0.325730     0.005394
AU1327   AU        0.335030    0.770379    0.330919     0.007504
AU1328   AU        0.338116    0.804494    0.298782     0.007504
AU1329   AU        0.371017    0.769789    0.299353     0.007504
AU1330   AU        0.369509    0.806220    0.331979     0.007504
PD1331   PD        0.402052    0.770874    0.330877     0.005394
PD1332   PD        0.402812    0.803965    0.299775     0.005394
AU1333   AU        0.434054    0.768815    0.297887     0.007504
AU1334   AU        0.435094    0.805308    0.332967     0.007504
AU1335   AU        0.467778    0.769928    0.332733     0.007504
AU1336   AU        0.470180    0.805132    0.301233     0.007504
AU1337   AU        0.500582    0.768210    0.299995     0.007504
AU1338   AU        0.502286    0.804903    0.331749     0.007504
PD1339   PD        0.535202    0.767241    0.332774     0.005394
PD1340   PD        0.535396    0.803421    0.300491     0.005394
AU1341   AU        0.568343    0.769166    0.300559     0.007504
PD1342   PD        0.566442    0.804598    0.332039     0.005394
PD1343   PD        0.602277    0.769099    0.334352     0.005394
AU1344   AU        0.600383    0.803849    0.300857     0.007504
AU1345   AU        0.635533    0.769192    0.299820     0.007504
AU1346   AU        0.635091    0.803020    0.331759     0.007504
PD1347   PD        0.670386    0.768480    0.332922     0.005394
PD1348   PD        0.669477    0.833761    0.330446     0.005394
PD1349   PD        0.705871    0.768607    0.301224     0.005394
PD1350   PD        0.273322    0.837928    0.331466     0.005394
PD1351   PD        0.305160    0.839521    0.297185     0.005394
PD1352   PD        0.303042    0.874108    0.328550     0.005394
PD1353   PD        0.336758    0.840432    0.331806     0.005394
AU1354   AU        0.335686    0.874368    0.297333     0.007504
PD1355   PD        0.371804    0.842408    0.299802     0.005394
PD1356   PD        0.337089    0.909251    0.332181     0.005394
AU1357   AU        0.405734    0.840193    0.333858     0.007504
PD1358   PD        0.403351    0.909281    0.266561     0.005394
PD1359   PD        0.435410    0.837169    0.299472     0.005394
PD1360   PD        0.436610    0.875546    0.331094     0.005394
AU1361   AU        0.470669    0.840489    0.332369     0.007504
PD1362   PD        0.468647    0.872590    0.297438     0.005394
AU1363   AU        0.501840    0.841098    0.297761     0.007504
PD1364   PD        0.500335    0.875896    0.332574     0.005394
AU1365   AU        0.535008    0.837613    0.333192     0.007504
PD1366   PD        0.535382    0.873564    0.301925     0.005394
AU1367   AU        0.568106    0.838950    0.302057     0.007504
PD1368   PD        0.567883    0.874236    0.333096     0.005394
PD1369   PD        0.605184    0.839058    0.330440     0.005394
PD1370   PD        0.280002    0.000714    0.318687     0.005394
PD1371   PD        0.302338    0.094166    0.396920     0.005394
AU1372   AU        0.339354    0.094869    0.367255     0.007504
PD1373   PD        0.371219    0.098392    0.398408     0.005394
PD1374   PD        0.402150    0.059520    0.397528     0.005394
AU1375   AU        0.403570    0.096351    0.365884     0.007504
PD1376   PD        0.432079    0.059641    0.364885     0.005394
PD1377   PD        0.435759    0.094348    0.399671     0.005394
PD1378   PD        0.433917    0.060026    0.428147     0.005394
AU1379   AU        0.471387    0.093664    0.367967     0.007504
PD1380   PD        0.501193    0.094312    0.401344     0.005394
PD1381   PD        0.536051    0.097310    0.364131     0.005394
PD1382   PD        0.570675    0.091173    0.395591     0.005394
PD1383   PD        0.602750    0.025155    0.354864     0.005394
PD1384   PD        0.172643    0.169808    0.397436     0.005394
PD1385   PD        0.169207    0.134710    0.369358     0.005394
PD1386   PD        0.202008    0.166446    0.369192     0.005394
PD1387   PD        0.236368    0.131417    0.363130     0.005394
PD1388   PD        0.241125    0.168515    0.400947     0.005394
PD1389   PD        0.272876    0.131506    0.400301     0.005394
AU1390   AU        0.273223    0.166441    0.365254     0.007504
AU1391   AU        0.305999    0.130370    0.363987     0.007504
AU1392   AU        0.305774    0.165512    0.397567     0.007504
AU1393   AU        0.337843    0.130815    0.398582     0.007504
PD1394   PD        0.338882    0.166055    0.365927     0.005394
PD1395   PD        0.371993    0.132303    0.363956     0.005394
PD1396   PD        0.371313    0.165039    0.401394     0.005394
AU1397   AU        0.403800    0.132275    0.398268     0.007504
AU1398   AU        0.403710    0.166873    0.365707     0.007504
AU1399   AU        0.437518    0.130042    0.368328     0.007504
AU1400   AU        0.437675    0.167218    0.399194     0.007504
PD1401   PD        0.469065    0.127965    0.399272     0.005394
PD1402   PD        0.468864    0.166626    0.366343     0.005394
AU1403   AU        0.503663    0.131416    0.364644     0.007504
AU1404   AU        0.502310    0.165723    0.399007     0.007504
AU1405   AU        0.536917    0.129434    0.399545     0.007504
AU1406   AU        0.536866    0.166957    0.366082     0.007504
AU1407   AU        0.567332    0.132882    0.365864     0.007504
PD1408   PD        0.570583    0.166423    0.400626     0.005394
PD1409   PD        0.598971    0.128761    0.398211     0.005394
AU1410   AU        0.604881    0.166961    0.366391     0.007504
PD1411   PD        0.631507    0.107402    0.364390     0.005394
PD1412   PD        0.635415    0.162003    0.398001     0.005394
PD1413   PD        0.671761    0.128065    0.401434     0.005394
PD1414   PD        0.669195    0.162447    0.366308     0.005394
PD1415   PD        0.703257    0.166322    0.402340     0.005394
PD1416   PD        0.107291    0.240195    0.400255     0.005394
PD1417   PD        0.100583    0.169073    0.471114     0.005394
PD1418   PD        0.136558    0.236716    0.365037     0.005394
PD1419   PD        0.171808    0.201090    0.364602     0.005394
PD1420   PD        0.172729    0.236619    0.396563     0.005394
PD1421   PD        0.205216    0.204925    0.398749     0.005394
PD1422   PD        0.205182    0.236634    0.365277     0.005394
AU1423   AU        0.236935    0.199819    0.366769     0.007504
PD1424   PD        0.237302    0.236353    0.397820     0.005394
PD1425   PD        0.272835    0.201068    0.398518     0.005394
AU1426   AU        0.269205    0.233976    0.365295     0.007504
AU1427   AU        0.305309    0.200741    0.365721     0.007504
AU1428   AU        0.302586    0.236414    0.397924     0.007504
AU1429   AU        0.337425    0.201747    0.398847     0.007504
AU1430   AU        0.337386    0.235899    0.365169     0.007504
PD1431   PD        0.372570    0.202967    0.365775     0.005394
AU1432   AU        0.369181    0.236985    0.396822     0.007504
AU1433   AU        0.402952    0.201188    0.400006     0.007504
AU1434   AU        0.404172    0.237321    0.368138     0.007504
AU1435   AU        0.435776    0.201192    0.363975     0.007504
AU1436   AU        0.438128    0.237041    0.399495     0.007504
PD1437   PD        0.472483    0.203537    0.397415     0.005394
AU1438   AU        0.469195    0.236412    0.365035     0.007504
PD1439   PD        0.502717    0.199303    0.367425     0.005394
AU1440   AU        0.503443    0.235674    0.399694     0.007504
AU1441   AU        0.536643    0.201133    0.399587     0.007504
AU1442   AU        0.536445    0.235372    0.365817     0.007504
AU1443   AU        0.570222    0.200602    0.365403     0.007504
PD1444   PD        0.570283    0.237397    0.397744     0.005394
AU1445   AU        0.603198    0.199769    0.397949     0.007504
PD1446   PD        0.601254    0.235190    0.368518     0.005394
AU1447   AU        0.637164    0.201699    0.365482     0.007504
AU1448   AU        0.636994    0.235792    0.399244     0.007504
AU1449   AU        0.667879    0.199748    0.398442     0.007504
AU1450   AU        0.671800    0.235524    0.365792     0.007504
PD1451   PD        0.736128    0.200139    0.332023     0.005394
AU1452   AU        0.700819    0.235341    0.398699     0.007504
PD1453   PD        0.799561    0.195870    0.391283     0.005394
AU1454   AU        0.734600    0.235698    0.367144     0.007504
AU1455   AU        0.767685    0.234062    0.398738     0.007504
PD1456   PD        0.071546    0.311133    0.366028     0.005394
PD1457   PD        0.105637    0.272138    0.366801     0.005394
PD1458   PD        0.103743    0.309447    0.396381     0.005394
PD1459   PD        0.140767    0.273522    0.398957     0.005394
PD1460   PD        0.139231    0.310733    0.366292     0.005394
AU1461   AU        0.173082    0.274163    0.366463     0.007504
AU1462   AU        0.172759    0.309068    0.398256     0.007504
AU1463   AU        0.203356    0.273844    0.397334     0.007504
PD1464   PD        0.205374    0.306948    0.364272     0.005394
PD1465   PD        0.239106    0.270185    0.364439     0.005394
AU1466   AU        0.236970    0.306212    0.396915     0.007504
PD1467   PD        0.270508    0.273014    0.396369     0.005394
PD1468   PD        0.269785    0.304833    0.364171     0.005394
AU1469   AU        0.302914    0.271666    0.363444     0.007504
PD1470   PD        0.303623    0.306084    0.396975     0.005394
AU1471   AU        0.337256    0.271457    0.395209     0.007504
AU1472   AU        0.336177    0.307403    0.363815     0.007504
AU1473   AU        0.368295    0.271805    0.363415     0.007504
AU1474   AU        0.370053    0.307594    0.397154     0.007504
AU1475   AU        0.402416    0.272100    0.398759     0.007504
AU1476   AU        0.402545    0.304723    0.365105     0.007504
AU1477   AU        0.436807    0.271204    0.366638     0.007504
AU1478   AU        0.435934    0.306805    0.399115     0.007504
PD1479   PD        0.471139    0.271999    0.399354     0.005394
AU1480   AU        0.470001    0.307079    0.367128     0.007504
AU1481   AU        0.504615    0.269775    0.367200     0.007504
AU1482   AU        0.504575    0.307914    0.398629     0.007504
AU1483   AU        0.535654    0.271161    0.399427     0.007504
AU1484   AU        0.535414    0.307078    0.365572     0.007504
PD1485   PD        0.567514    0.269248    0.365125     0.005394
AU1486   AU        0.569248    0.307123    0.399277     0.007504
PD1487   PD        0.602998    0.271624    0.396260     0.005394
AU1488   AU        0.603567    0.304852    0.364240     0.007504
PD1489   PD        0.637230    0.269607    0.365518     0.005394
PD1490   PD        0.637224    0.304986    0.398328     0.005394
AU1491   AU        0.669326    0.270523    0.398079     0.007504
AU1492   AU        0.668158    0.305218    0.366232     0.007504
AU1493   AU        0.702807    0.272815    0.365064     0.007504
PD1494   PD        0.703002    0.309799    0.398505     0.005394
AU1495   AU        0.733241    0.269108    0.398686     0.007504
PD1496   PD        0.737735    0.306608    0.364959     0.005394
PD1497   PD        0.767630    0.268559    0.366096     0.005394
PD1498   PD        0.801110    0.267892    0.396374     0.005394
PD1499   PD        0.835602    0.267034    0.352946     0.005394
PD1500   PD        0.070221    0.342346    0.399764     0.005394
AU1501   AU        0.072758    0.375930    0.364607     0.007504
AU1502   AU        0.106075    0.343554    0.364811     0.007504
AU1503   AU        0.105493    0.378795    0.397721     0.007504
AU1504   AU        0.140315    0.343345    0.397430     0.007504
AU1505   AU        0.138389    0.379628    0.366678     0.007504
AU1506   AU        0.171744    0.344231    0.364427     0.007504
AU1507   AU        0.172440    0.377897    0.398996     0.007504
PD1508   PD        0.204649    0.343329    0.397375     0.005394
PD1509   PD        0.205618    0.377766    0.364979     0.005394
AU1510   AU        0.238403    0.344048    0.364588     0.007504
PD1511   PD        0.237093    0.376420    0.398004     0.005394
AU1512   AU        0.269577    0.342266    0.398156     0.007504
PD1513   PD        0.268327    0.378582    0.365979     0.005394
PD1514   PD        0.303523    0.343817    0.367463     0.005394
AU1515   AU        0.302697    0.379289    0.399664     0.007504
PD1516   PD        0.336518    0.345452    0.396203     0.005394
AU1517   AU        0.337908    0.379216    0.368471     0.007504
AU1518   AU        0.369200    0.343669    0.364466     0.007504
AU1519   AU        0.371788    0.379379    0.399349     0.007504
AU1520   AU        0.402502    0.343103    0.396531     0.007504
AU1521   AU        0.403601    0.375971    0.364454     0.007504
PD1522   PD        0.435231    0.340272    0.366268     0.005394
AU1523   AU        0.435581    0.375939    0.397867     0.007504
AU1524   AU        0.470941    0.342756    0.398968     0.007504
AU1525   AU        0.470643    0.377022    0.365397     0.007504
AU1526   AU        0.503367    0.342460    0.368054     0.007504
AU1527   AU        0.502589    0.375843    0.398959     0.007504
AU1528   AU        0.537709    0.343264    0.400873     0.007504
AU1529   AU        0.535865    0.380481    0.365326     0.007504
AU1530   AU        0.570133    0.341778    0.365740     0.007504
AU1531   AU        0.570734    0.377001    0.401049     0.007504
AU1532   AU        0.604236    0.341627    0.397484     0.007504
PD1533   PD        0.603312    0.379510    0.366700     0.005394
PD1534   PD        0.635924    0.341425    0.364557     0.005394
AU1535   AU        0.637504    0.378566    0.398157     0.007504
AU1536   AU        0.669761    0.342774    0.399376     0.007504
AU1537   AU        0.671394    0.375732    0.364663     0.007504
AU1538   AU        0.703589    0.340072    0.364945     0.007504
AU1539   AU        0.702969    0.377981    0.398372     0.007504
PD1540   PD        0.737322    0.343938    0.401165     0.005394
AU1541   AU        0.736247    0.377798    0.366176     0.007504
AU1542   AU        0.765871    0.341851    0.365187     0.007504
PD1543   PD        0.768188    0.380852    0.395986     0.005394
PD1544   PD        0.801390    0.339641    0.396977     0.005394
AU1545   AU        0.799505    0.377330    0.363990     0.007504
PD1546   PD        0.040373    0.448700    0.396497     0.005394
PD1547   PD        0.072608    0.416114    0.396799     0.005394
PD1548   PD        0.033328    0.401748    0.378526     0.005394
AU1549   AU        0.106778    0.412055    0.362211     0.007504
PD1550   PD        0.105283    0.448294    0.396146     0.005394
AU1551   AU        0.139490    0.412303    0.397264     0.007504
AU1552   AU        0.137932    0.448578    0.364247     0.007504
AU1553   AU        0.171372    0.412527    0.365342     0.007504
PD1554   PD        0.172535    0.448636    0.398963     0.005394
AU1555   AU        0.205488    0.412941    0.396503     0.007504
PD1556   PD        0.205400    0.448499    0.367173     0.005394
PD1557   PD        0.239047    0.413445    0.365711     0.005394
AU1558   AU        0.236622    0.449508    0.400281     0.007504
PD1559   PD        0.269217    0.415612    0.398625     0.005394
AU1560   AU        0.271947    0.450053    0.364337     0.007504
AU1561   AU        0.303938    0.412097    0.364936     0.007504
AU1562   AU        0.302650    0.447017    0.397007     0.007504
AU1563   AU        0.337954    0.416958    0.398705     0.007504
AU1564   AU        0.335843    0.449090    0.363582     0.007504
AU1565   AU        0.371023    0.412654    0.365568     0.007504
AU1566   AU        0.369921    0.450712    0.397469     0.007504
PD1567   PD        0.403268    0.414165    0.397044     0.005394
PD1568   PD        0.404777    0.452093    0.362366     0.005394
AU1569   AU        0.437932    0.413678    0.364158     0.007504
AU1570   AU        0.438053    0.448964    0.397434     0.007504
AU1571   AU        0.469502    0.412344    0.398665     0.007504
PD1572   PD        0.471430    0.448633    0.365402     0.005394
AU1573   AU        0.502937    0.413190    0.364664     0.007504
AU1574   AU        0.504328    0.449708    0.401369     0.007504
AU1575   AU        0.535626    0.413099    0.397472     0.007504
PD1576   PD        0.534540    0.450523    0.366812     0.005394
AU1577   AU        0.569185    0.415854    0.366923     0.007504
AU1578   AU        0.569098    0.449171    0.399673     0.007504
AU1579   AU        0.603149    0.414643    0.399481     0.007504
AU1580   AU        0.603154    0.449811    0.366648     0.007504
PD1581   PD        0.635395    0.411810    0.365101     0.005394
AU1582   AU        0.638465    0.449782    0.397630     0.007504
AU1583   AU        0.671020    0.412210    0.399429     0.007504
PD1584   PD        0.671637    0.448078    0.364919     0.005394
AU1585   AU        0.703263    0.411384    0.365029     0.007504
AU1586   AU        0.704073    0.448948    0.398525     0.007504
AU1587   AU        0.735401    0.414804    0.397493     0.007504
PD1588   PD        0.734456    0.447457    0.364834     0.005394
AU1589   AU        0.768010    0.414432    0.365249     0.007504
PD1590   PD        0.767892    0.447293    0.399378     0.005394
PD1591   PD        0.832053    0.377066    0.398096     0.005394
AU1592   AU        0.800315    0.451706    0.364482     0.007504
PD1593   PD        0.831018    0.450627    0.400387     0.005394
PD1594   PD        0.039526    0.481481    0.364618     0.005394
PD1595   PD        0.000667    0.489664    0.388931     0.005394
PD1596   PD        0.076702    0.482036    0.399058     0.005394
PD1597   PD        0.073239    0.522500    0.369598     0.005394
PD1598   PD        0.104096    0.485417    0.362698     0.005394
AU1599   AU        0.105160    0.519293    0.399470     0.007504
AU1600   AU        0.136609    0.483845    0.400462     0.007504
AU1601   AU        0.138961    0.520098    0.365993     0.007504
PD1602   PD        0.171788    0.482282    0.367066     0.005394
PD1603   PD        0.171368    0.517412    0.398457     0.005394
AU1604   AU        0.204487    0.485119    0.401074     0.007504
PD1605   PD        0.205031    0.517710    0.362292     0.005394
PD1606   PD        0.237715    0.483724    0.365989     0.005394
AU1607   AU        0.237466    0.519575    0.396306     0.007504
AU1608   AU        0.269890    0.485419    0.397045     0.007504
AU1609   AU        0.268496    0.520978    0.362381     0.007504
AU1610   AU        0.302485    0.484642    0.362514     0.007504
AU1611   AU        0.302742    0.521779    0.397861     0.007504
AU1612   AU        0.335821    0.484281    0.395184     0.007504
AU1613   AU        0.337925    0.522550    0.364352     0.007504
PD1614   PD        0.369822    0.487564    0.361129     0.005394
AU1615   AU        0.369620    0.517950    0.397596     0.007504
AU1616   AU        0.402927    0.484158    0.397511     0.007504
AU1617   AU        0.403048    0.521114    0.365364     0.007504
AU1618   AU        0.437410    0.485443    0.364692     0.007504
AU1619   AU        0.435662    0.520945    0.397702     0.007504
AU1620   AU        0.471451    0.485513    0.399562     0.007504
AU1621   AU        0.468456    0.521478    0.365521     0.007504
PD1622   PD        0.503564    0.488751    0.366446     0.005394
AU1623   AU        0.502004    0.522872    0.398461     0.007504
AU1624   AU        0.537811    0.487018    0.398025     0.007504
AU1625   AU        0.538153    0.519652    0.365187     0.007504
AU1626   AU        0.569451    0.485668    0.365872     0.007504
AU1627   AU        0.571220    0.519090    0.398476     0.007504
PD1628   PD        0.603862    0.484090    0.399699     0.005394
AU1629   AU        0.602632    0.520354    0.364937     0.007504
AU1630   AU        0.636795    0.483386    0.365438     0.007504
AU1631   AU        0.636292    0.519856    0.397538     0.007504
AU1632   AU        0.669291    0.483883    0.397296     0.007504
PD1633   PD        0.669835    0.520511    0.364795     0.005394
PD1634   PD        0.702744    0.483101    0.365012     0.005394
PD1635   PD        0.700465    0.522544    0.397071     0.005394
PD1636   PD        0.735768    0.486009    0.398270     0.005394
AU1637   AU        0.733979    0.519837    0.365975     0.007504
PD1638   PD        0.768102    0.486571    0.366460     0.005394
PD1639   PD        0.766752    0.521532    0.399444     0.005394
PD1640   PD        0.803253    0.490156    0.400076     0.005394
AU1641   AU        0.800169    0.521023    0.365006     0.007504
PD1642   PD        0.835057    0.485175    0.367570     0.005394
AU1643   AU        0.832148    0.518008    0.401174     0.007504
AU1644   AU        0.074776    0.558594    0.399672     0.007504
AU1645   AU        0.070789    0.591651    0.365640     0.007504
PD1646   PD        0.104463    0.553790    0.363866     0.005394
PD1647   PD        0.106226    0.592662    0.396371     0.005394
AU1648   AU        0.136102    0.555892    0.397169     0.007504
PD1649   PD        0.135075    0.592914    0.364389     0.005394
AU1650   AU        0.169126    0.556431    0.363243     0.007504
AU1651   AU        0.167844    0.593051    0.397533     0.007504
PD1652   PD        0.201721    0.554354    0.396662     0.005394
AU1653   AU        0.202753    0.590182    0.364708     0.007504
PD1654   PD        0.238861    0.557002    0.363670     0.005394
PD1655   PD        0.235333    0.590582    0.399680     0.005394
AU1656   AU        0.270690    0.555359    0.397051     0.007504
AU1657   AU        0.272632    0.593475    0.365331     0.007504
AU1658   AU        0.302959    0.556622    0.366256     0.007504
AU1659   AU        0.302693    0.592915    0.399505     0.007504
AU1660   AU        0.334949    0.557670    0.398187     0.007504
PD1661   PD        0.337037    0.595000    0.364941     0.005394
AU1662   AU        0.371428    0.555975    0.362749     0.007504
AU1663   AU        0.370239    0.593213    0.397913     0.007504
AU1664   AU        0.401338    0.557079    0.396422     0.007504
AU1665   AU        0.402935    0.592863    0.363853     0.007504
AU1666   AU        0.438375    0.558199    0.364593     0.007504
AU1667   AU        0.434737    0.592379    0.397248     0.007504
AU1668   AU        0.471311    0.557595    0.398842     0.007504
AU1669   AU        0.469913    0.594218    0.365811     0.007504
AU1670   AU        0.504565    0.556802    0.363986     0.007504
AU1671   AU        0.502484    0.591988    0.397253     0.007504
AU1672   AU        0.536938    0.557730    0.399264     0.007504
AU1673   AU        0.537360    0.591227    0.365416     0.007504
AU1674   AU        0.569041    0.553855    0.367026     0.007504
AU1675   AU        0.571926    0.591944    0.400361     0.007504
AU1676   AU        0.604445    0.556251    0.400135     0.007504
AU1677   AU        0.602305    0.591956    0.365078     0.007504
AU1678   AU        0.634214    0.555155    0.364467     0.007504
AU1679   AU        0.636685    0.591738    0.396839     0.007504
PD1680   PD        0.667977    0.556366    0.399517     0.005394
PD1681   PD        0.669621    0.590003    0.364216     0.005394
PD1682   PD        0.700437    0.556001    0.366172     0.005394
PD1683   PD        0.704388    0.591522    0.398053     0.005394
PD1684   PD        0.734153    0.555912    0.398533     0.005394
AU1685   AU        0.735653    0.593035    0.364132     0.007504
AU1686   AU        0.768678    0.556431    0.365707     0.007504
PD1687   PD        0.767080    0.590818    0.400991     0.005394
AU1688   AU        0.801966    0.555681    0.397217     0.007504
PD1689   PD        0.867006    0.590422    0.363592     0.005394
AU1690   AU        0.071340    0.625926    0.399070     0.007504
PD1691   PD        0.073704    0.664856    0.364801     0.005394
AU1692   AU        0.103980    0.628468    0.364900     0.007504
AU1693   AU        0.104777    0.663879    0.397413     0.007504
PD1694   PD        0.137470    0.627201    0.399301     0.005394
AU1695   AU        0.137838    0.663479    0.365454     0.007504
AU1696   AU        0.170074    0.629169    0.365714     0.007504
PD1697   PD        0.171414    0.665213    0.398020     0.005394
AU1698   AU        0.203522    0.628526    0.399313     0.007504
AU1699   AU        0.202647    0.662644    0.365306     0.007504
AU1700   AU        0.236991    0.625911    0.365779     0.007504
AU1701   AU        0.236171    0.661713    0.397821     0.007504
AU1702   AU        0.270177    0.628465    0.398030     0.007504
PD1703   PD        0.269061    0.662979    0.363898     0.005394
PD1704   PD        0.304011    0.628621    0.363492     0.005394
AU1705   AU        0.303777    0.661173    0.396752     0.007504
AU1706   AU        0.336091    0.627320    0.397193     0.007504
PD1707   PD        0.335734    0.663596    0.362829     0.005394
AU1708   AU        0.369539    0.628009    0.364632     0.007504
AU1709   AU        0.369541    0.661829    0.398198     0.007504
AU1710   AU        0.403070    0.627936    0.398589     0.007504
AU1711   AU        0.404059    0.663451    0.363867     0.007504
AU1712   AU        0.436281    0.627500    0.365224     0.007504
AU1713   AU        0.436560    0.662608    0.400567     0.007504
AU1714   AU        0.470893    0.626997    0.400226     0.007504
AU1715   AU        0.468397    0.662290    0.366121     0.007504
PD1716   PD        0.504958    0.626253    0.366778     0.005394
PD1717   PD        0.503770    0.660945    0.399589     0.005394
PD1718   PD        0.536671    0.626727    0.399913     0.005394
PD1719   PD        0.535399    0.664236    0.368204     0.005394
PD1720   PD        0.568575    0.628028    0.366598     0.005394
PD1721   PD        0.570283    0.666181    0.399677     0.005394
AU1722   AU        0.603574    0.627440    0.399303     0.007504
AU1723   AU        0.604144    0.662465    0.365849     0.007504
AU1724   AU        0.636744    0.627230    0.366057     0.007504
AU1725   AU        0.636088    0.662635    0.397673     0.007504
PD1726   PD        0.668654    0.627415    0.399191     0.005394
AU1727   AU        0.669594    0.661350    0.367266     0.007504
AU1728   AU        0.700884    0.626986    0.364420     0.007504
AU1729   AU        0.702535    0.661080    0.399171     0.007504
PD1730   PD        0.735532    0.628921    0.398754     0.005394
AU1731   AU        0.734143    0.661620    0.366018     0.007504
PD1732   PD        0.765800    0.626044    0.366279     0.005394
PD1733   PD        0.767322    0.661788    0.403158     0.005394
PD1734   PD        0.800292    0.623728    0.399968     0.005394
PD1735   PD        0.802280    0.707086    0.330675     0.005394
PD1736   PD        0.106393    0.698619    0.366332     0.005394
PD1737   PD        0.107615    0.737577    0.400885     0.005394
PD1738   PD        0.141067    0.697105    0.398199     0.005394
PD1739   PD        0.138009    0.734428    0.367575     0.005394
AU1740   AU        0.170909    0.698623    0.366470     0.007504
AU1741   AU        0.172277    0.733641    0.399206     0.007504
AU1742   AU        0.204844    0.698086    0.399438     0.007504
PD1743   PD        0.202565    0.736192    0.365876     0.005394
PD1744   PD        0.235570    0.697494    0.363678     0.005394
AU1745   AU        0.235296    0.734780    0.399846     0.007504
AU1746   AU        0.270309    0.695326    0.397723     0.007504
PD1747   PD        0.271727    0.732255    0.366524     0.005394
PD1748   PD        0.301326    0.698530    0.364895     0.005394
PD1749   PD        0.304687    0.736320    0.400010     0.005394
PD1750   PD        0.334925    0.697027    0.398188     0.005394
PD1751   PD        0.336662    0.736069    0.366895     0.005394
AU1752   AU        0.371258    0.699125    0.364858     0.007504
PD1753   PD        0.370587    0.733735    0.400798     0.005394
AU1754   AU        0.404200    0.697415    0.398033     0.007504
AU1755   AU        0.402415    0.734617    0.365300     0.007504
AU1756   AU        0.436573    0.699559    0.365735     0.007504
PD1757   PD        0.438201    0.734264    0.399823     0.005394
PD1758   PD        0.469704    0.700711    0.397695     0.005394
AU1759   AU        0.469055    0.736353    0.366694     0.007504
AU1760   AU        0.502403    0.697505    0.365143     0.007504
AU1761   AU        0.502826    0.735961    0.396806     0.007504
PD1762   PD        0.533515    0.700037    0.397922     0.005394
PD1763   PD        0.536522    0.731484    0.364947     0.005394
AU1764   AU        0.568282    0.697665    0.366066     0.007504
AU1765   AU        0.568409    0.734242    0.399509     0.007504
AU1766   AU        0.602777    0.697016    0.398698     0.007504
AU1767   AU        0.602517    0.730668    0.366149     0.007504
PD1768   PD        0.636638    0.697966    0.366067     0.005394
PD1769   PD        0.636161    0.733790    0.400735     0.005394
AU1770   AU        0.668412    0.697599    0.399700     0.007504
PD1771   PD        0.669616    0.732858    0.363965     0.005394
PD1772   PD        0.702041    0.696666    0.366935     0.005394
PD1773   PD        0.702143    0.731988    0.396922     0.005394
AU1774   AU        0.735497    0.693892    0.399270     0.007504
PD1775   PD        0.734033    0.730570    0.366995     0.005394
PD1776   PD        0.767796    0.695054    0.366299     0.005394
PD1777   PD        0.766235    0.727850    0.400422     0.005394
PD1778   PD        0.138379    0.767832    0.398404     0.005394
PD1779   PD        0.169108    0.769991    0.368621     0.005394
AU1780   AU        0.168166    0.803540    0.401603     0.007504
PD1781   PD        0.203038    0.771083    0.400617     0.005394
PD1782   PD        0.206353    0.801084    0.364225     0.005394
PD1783   PD        0.239179    0.767675    0.364099     0.005394
PD1784   PD        0.236421    0.807846    0.402260     0.005394
PD1785   PD        0.268663    0.770062    0.396768     0.005394
PD1786   PD        0.274347    0.802845    0.367339     0.005394
PD1787   PD        0.303859    0.771007    0.362824     0.005394
AU1788   AU        0.302601    0.804361    0.402193     0.007504
PD1789   PD        0.340042    0.768480    0.398451     0.005394
PD1790   PD        0.334352    0.805916    0.363432     0.005394
AU1791   AU        0.371666    0.770174    0.365182     0.007504
PD1792   PD        0.369319    0.804008    0.399766     0.005394
PD1793   PD        0.402112    0.770510    0.399508     0.005394
PD1794   PD        0.402733    0.807196    0.368155     0.005394
PD1795   PD        0.435812    0.771371    0.364040     0.005394
PD1796   PD        0.437225    0.804261    0.400391     0.005394
AU1797   AU        0.472123    0.770001    0.400450     0.007504
AU1798   AU        0.468484    0.803561    0.364550     0.007504
AU1799   AU        0.502613    0.768804    0.363907     0.007504
AU1800   AU        0.502670    0.803356    0.399793     0.007504
PD1801   PD        0.534770    0.770853    0.397810     0.005394
PD1802   PD        0.535471    0.805730    0.366261     0.005394
PD1803   PD        0.568892    0.769297    0.365752     0.005394
PD1804   PD        0.566667    0.804766    0.398356     0.005394
PD1805   PD        0.604398    0.769018    0.396634     0.005394
AU1806   AU        0.602977    0.804807    0.364477     0.007504
PD1807   PD        0.633163    0.770030    0.366763     0.005394
PD1808   PD        0.632689    0.805191    0.401394     0.005394
PD1809   PD        0.665855    0.768964    0.398863     0.005394
PD1810   PD        0.668925    0.802248    0.363631     0.005394
PD1811   PD        0.709780    0.768405    0.361116     0.005394
PD1812   PD        0.702456    0.800902    0.399422     0.005394
PD1813   PD        0.737499    0.769775    0.396542     0.005394
PD1814   PD        0.205255    0.878190    0.438080     0.005394
PD1815   PD        0.240965    0.839221    0.364262     0.005394
PD1816   PD        0.270523    0.843079    0.402028     0.005394
PD1817   PD        0.274099    0.874054    0.366148     0.005394
PD1818   PD        0.302479    0.843537    0.367906     0.005394
PD1819   PD        0.304218    0.875715    0.398436     0.005394
PD1820   PD        0.336831    0.837106    0.400972     0.005394
PD1821   PD        0.336986    0.871479    0.365595     0.005394
AU1822   AU        0.370041    0.838684    0.365540     0.007504
PD1823   PD        0.368874    0.875572    0.400035     0.005394
PD1824   PD        0.405818    0.839988    0.401158     0.005394
AU1825   AU        0.404251    0.875983    0.366278     0.007504
AU1826   AU        0.437436    0.839057    0.364033     0.007504
AU1827   AU        0.435812    0.873735    0.400903     0.007504
PD1828   PD        0.469491    0.840786    0.399808     0.005394
PD1829   PD        0.469977    0.875745    0.366114     0.005394
AU1830   AU        0.500698    0.838035    0.365044     0.007504
PD1831   PD        0.502141    0.871349    0.398764     0.005394
AU1832   AU        0.533675    0.841711    0.399314     0.007504
PD1833   PD        0.535884    0.874652    0.363322     0.005394
AU1834   AU        0.568995    0.839602    0.363848     0.007504
PD1835   PD        0.568123    0.874106    0.397493     0.005394
AU1836   AU        0.598835    0.836186    0.401316     0.007504
PD1837   PD        0.601297    0.872149    0.364303     0.005394
PD1838   PD        0.618624    0.905580    0.264395     0.005394
PD1839   PD        0.666438    0.834480    0.399263     0.005394
PD1840   PD        0.405697    0.913063    0.399035     0.005394
PD1841   PD        0.439067    0.910241    0.362833     0.005394
PD1842   PD        0.471774    0.909729    0.401849     0.005394
PD1843   PD        0.269776    0.090300    0.433185     0.005394
PD1844   PD        0.307320    0.092716    0.462744     0.005394
PD1845   PD        0.334128    0.093955    0.432813     0.005394
PD1846   PD        0.369205    0.059872    0.430318     0.005394
AU1847   AU        0.369058    0.096092    0.463899     0.007504
PD1848   PD        0.401237    0.061780    0.463549     0.005394
AU1849   AU        0.401873    0.095957    0.430548     0.007504
PD1850   PD        0.403821    0.023611    0.429560     0.005394
PD1851   PD        0.436042    0.094643    0.466168     0.005394
PD1852   PD        0.468396    0.058550    0.463810     0.005394
PD1853   PD        0.470405    0.094137    0.432906     0.005394
PD1854   PD        0.533923    0.058869    0.469958     0.005394
AU1855   AU        0.504060    0.094880    0.464778     0.007504
PD1856   PD        0.538288    0.091683    0.430469     0.005394
PD1857   PD        0.568850    0.095509    0.468049     0.005394
PD1858   PD        0.571161    0.055163    0.436966     0.005394
PD1859   PD        0.174115    0.167766    0.466189     0.005394
PD1860   PD        0.199479    0.134350    0.463692     0.005394
PD1861   PD        0.206716    0.168705    0.431278     0.005394
PD1862   PD        0.239120    0.093324    0.464064     0.005394
AU1863   AU        0.238655    0.166378    0.464133     0.007504
PD1864   PD        0.273585    0.131512    0.463901     0.005394
PD1865   PD        0.272816    0.167119    0.431630     0.005394
AU1866   AU        0.306663    0.134533    0.432076     0.007504
AU1867   AU        0.305182    0.167783    0.462406     0.007504
PD1868   PD        0.339743    0.132511    0.466252     0.005394
AU1869   AU        0.338979    0.166819    0.432150     0.007504
PD1870   PD        0.369080    0.130858    0.431008     0.005394
AU1871   AU        0.370315    0.168317    0.466274     0.007504
AU1872   AU        0.402554    0.130658    0.466492     0.007504
PD1873   PD        0.401710    0.166202    0.434165     0.005394
PD1874   PD        0.435161    0.130019    0.433105     0.005394
PD1875   PD        0.436532    0.163922    0.465648     0.005394
AU1876   AU        0.468874    0.129027    0.465016     0.007504
PD1877   PD        0.468909    0.164360    0.433457     0.005394
PD1878   PD        0.501284    0.128773    0.430096     0.005394
AU1879   AU        0.501787    0.165613    0.463887     0.007504
AU1880   AU        0.535207    0.132708    0.464017     0.007504
PD1881   PD        0.536086    0.165578    0.431472     0.005394
PD1882   PD        0.569334    0.131654    0.432448     0.005394
AU1883   AU        0.569062    0.164817    0.466630     0.007504
AU1884   AU        0.601045    0.129736    0.464794     0.007504
PD1885   PD        0.602327    0.165521    0.434701     0.005394
PD1886   PD        0.634984    0.131734    0.431249     0.005394
PD1887   PD        0.636112    0.168326    0.465363     0.005394
PD1888   PD        0.668481    0.130567    0.464316     0.005394
AU1889   AU        0.671170    0.167660    0.434093     0.007504
PD1890   PD        0.704912    0.165800    0.465423     0.005394
PD1891   PD        0.106228    0.234690    0.460510     0.005394
PD1892   PD        0.137783    0.200365    0.465568     0.005394
AU1893   AU        0.141182    0.239655    0.431407     0.007504
PD1894   PD        0.173089    0.201234    0.432764     0.005394
PD1895   PD        0.172132    0.234270    0.464527     0.005394
AU1896   AU        0.206991    0.203585    0.464287     0.007504
PD1897   PD        0.203138    0.235036    0.431817     0.005394
PD1898   PD        0.238776    0.201369    0.431023     0.005394
PD1899   PD        0.238244    0.236492    0.465076     0.005394
PD1900   PD        0.272786    0.200285    0.465068     0.005394
AU1901   AU        0.269357    0.236033    0.429733     0.007504
PD1902   PD        0.304269    0.202385    0.432753     0.005394
AU1903   AU        0.304211    0.235796    0.463422     0.007504
AU1904   AU        0.337277    0.201392    0.467819     0.007504
AU1905   AU        0.335771    0.237522    0.429152     0.007504
AU1906   AU        0.370936    0.200205    0.431450     0.007504
AU1907   AU        0.369566    0.235224    0.464049     0.007504
AU1908   AU        0.403953    0.203176    0.462395     0.007504
PD1909   PD        0.401792    0.237715    0.429558     0.005394
PD1910   PD        0.438125    0.202648    0.432554     0.005394
AU1911   AU        0.438857    0.237514    0.464950     0.007504
PD1912   PD        0.470149    0.203042    0.466729     0.005394
AU1913   AU        0.471356    0.237842    0.432689     0.007504
AU1914   AU        0.502182    0.200232    0.430958     0.007504
PD1915   PD        0.505565    0.235890    0.463334     0.005394
PD1916   PD        0.535216    0.200039    0.464811     0.005394
AU1917   AU        0.536455    0.237065    0.431583     0.007504
PD1918   PD        0.569096    0.199575    0.433147     0.005394
AU1919   AU        0.570846    0.235164    0.463141     0.007504
AU1920   AU        0.601724    0.200961    0.465016     0.007504
AU1921   AU        0.605170    0.236654    0.431387     0.007504
AU1922   AU        0.638405    0.199372    0.432986     0.007504
AU1923   AU        0.637491    0.236312    0.463584     0.007504
PD1924   PD        0.669639    0.203036    0.467951     0.005394
PD1925   PD        0.669184    0.235259    0.431963     0.005394
PD1926   PD        0.701885    0.202620    0.434480     0.005394
PD1927   PD        0.704280    0.236130    0.465615     0.005394
PD1928   PD        0.738258    0.199918    0.466628     0.005394
AU1929   AU        0.734792    0.235586    0.432065     0.007504
PD1930   PD        0.806660    0.271615    0.461554     0.005394
PD1931   PD        0.073510    0.309214    0.430531     0.005394
AU1932   AU        0.106086    0.275795    0.430579     0.007504
PD1933   PD        0.105853    0.308946    0.466863     0.005394
AU1934   AU        0.138343    0.272669    0.463383     0.007504
PD1935   PD        0.138801    0.308349    0.431952     0.005394
PD1936   PD        0.173774    0.275775    0.430950     0.005394
AU1937   AU        0.172840    0.308623    0.464923     0.007504
PD1938   PD        0.204101    0.270720    0.464566     0.005394
PD1939   PD        0.205036    0.307145    0.433687     0.005394
AU1940   AU        0.238257    0.270794    0.430010     0.007504
AU1941   AU        0.238577    0.306545    0.466391     0.007504
AU1942   AU        0.271225    0.269748    0.464515     0.007504
AU1943   AU        0.270165    0.306760    0.432219     0.007504
PD1944   PD        0.300753    0.271017    0.431535     0.005394
AU1945   AU        0.300292    0.307055    0.464889     0.007504
AU1946   AU        0.334921    0.273004    0.462148     0.007504
AU1947   AU        0.335393    0.307028    0.431606     0.007504
AU1948   AU        0.371965    0.271393    0.432552     0.007504
AU1949   AU        0.369351    0.307592    0.464958     0.007504
PD1950   PD        0.402033    0.270010    0.464741     0.005394
AU1951   AU        0.402842    0.307745    0.431623     0.007504
AU1952   AU        0.436346    0.273199    0.431698     0.007504
AU1953   AU        0.436895    0.307545    0.464600     0.007504
AU1954   AU        0.471362    0.273198    0.465012     0.007504
AU1955   AU        0.470626    0.308019    0.432451     0.007504
AU1956   AU        0.504497    0.273494    0.432689     0.007504
AU1957   AU        0.505846    0.306727    0.466466     0.007504
AU1958   AU        0.538120    0.271522    0.464634     0.007504
AU1959   AU        0.536713    0.307051    0.430636     0.007504
AU1960   AU        0.569950    0.271820    0.430111     0.007504
AU1961   AU        0.569451    0.306710    0.464212     0.007504
AU1962   AU        0.601649    0.271775    0.464238     0.007504
AU1963   AU        0.603907    0.306403    0.431244     0.007504
PD1964   PD        0.637524    0.270198    0.432905     0.005394
AU1965   AU        0.635845    0.305485    0.464517     0.007504
PD1966   PD        0.670927    0.269196    0.463104     0.005394
AU1967   AU        0.669312    0.306549    0.431899     0.007504
AU1968   AU        0.702031    0.271401    0.430906     0.007504
PD1969   PD        0.702692    0.306706    0.465288     0.005394
AU1970   AU        0.733918    0.271424    0.464025     0.007504
PD1971   PD        0.735949    0.307713    0.430006     0.005394
AU1972   AU        0.767620    0.268941    0.431924     0.007504
AU1973   AU        0.768641    0.306278    0.464268     0.007504
PD1974   PD        0.801335    0.231079    0.430925     0.005394
PD1975   PD        0.073029    0.343256    0.461494     0.005394
PD1976   PD        0.069283    0.378827    0.431762     0.005394
AU1977   AU        0.107121    0.344059    0.429423     0.007504
AU1978   AU        0.104877    0.379004    0.464368     0.007504
PD1979   PD        0.137911    0.344362    0.465699     0.005394
PD1980   PD        0.136749    0.377937    0.431386     0.005394
AU1981   AU        0.171481    0.342099    0.432554     0.007504
PD1982   PD        0.171469    0.378217    0.463976     0.005394
PD1983   PD        0.205633    0.342708    0.465946     0.005394
AU1984   AU        0.206209    0.376904    0.432636     0.007504
PD1985   PD        0.239050    0.341566    0.431825     0.005394
AU1986   AU        0.237558    0.380986    0.466492     0.007504
AU1987   AU        0.268054    0.343188    0.465966     0.007504
AU1988   AU        0.269023    0.377713    0.430145     0.007504
AU1989   AU        0.303391    0.343125    0.429904     0.007504
AU1990   AU        0.303223    0.377570    0.463407     0.007504
AU1991   AU        0.333526    0.341730    0.464319     0.007504
AU1992   AU        0.337853    0.378669    0.429905     0.007504
AU1993   AU        0.369448    0.343439    0.431067     0.007504
AU1994   AU        0.369848    0.378281    0.465894     0.007504
PD1995   PD        0.401435    0.342904    0.463923     0.005394
AU1996   AU        0.404153    0.377869    0.431883     0.007504
AU1997   AU        0.436158    0.342454    0.432108     0.007504
AU1998   AU        0.438765    0.378761    0.464216     0.007504
AU1999   AU        0.471904    0.341607    0.466704     0.007504
PD2000   PD        0.471309    0.378653    0.432304     0.005394
AU2001   AU        0.503605    0.341188    0.433257     0.007504
AU2002   AU        0.503499    0.378038    0.465017     0.007504
AU2003   AU        0.537809    0.342511    0.463990     0.007504
AU2004   AU        0.536585    0.377035    0.433543     0.007504
AU2005   AU        0.571867    0.341596    0.432095     0.007504
AU2006   AU        0.571965    0.377286    0.463583     0.007504
AU2007   AU        0.603443    0.340346    0.465740     0.007504
PD2008   PD        0.605908    0.378428    0.433092     0.005394
AU2009   AU        0.635841    0.342595    0.432134     0.007504
PD2010   PD        0.638896    0.376022    0.466017     0.005394
PD2011   PD        0.670988    0.342649    0.467167     0.005394
AU2012   AU        0.669719    0.379586    0.431777     0.007504
PD2013   PD        0.702240    0.342870    0.433027     0.005394
AU2014   AU        0.704260    0.377073    0.466527     0.007504
AU2015   AU        0.736273    0.340213    0.464260     0.007504
AU2016   AU        0.735590    0.378401    0.433505     0.007504
AU2017   AU        0.770252    0.343942    0.433774     0.007504
AU2018   AU        0.770739    0.378288    0.467062     0.007504
AU2019   AU        0.800555    0.340450    0.468613     0.007504
PD2020   PD        0.802387    0.380422    0.432398     0.005394
PD2021   PD        0.008701    0.379151    0.431967     0.005394
PD2022   PD        0.039331    0.452152    0.463605     0.005394
PD2023   PD        0.075173    0.416699    0.465462     0.005394
AU2024   AU        0.074035    0.448939    0.433317     0.007504
PD2025   PD        0.105939    0.412288    0.432503     0.005394
AU2026   AU        0.109172    0.450510    0.465264     0.007504
PD2027   PD        0.138911    0.412665    0.467031     0.005394
PD2028   PD        0.139214    0.447497    0.429208     0.005394
AU2029   AU        0.170999    0.412124    0.432133     0.007504
PD2030   PD        0.170351    0.448320    0.465827     0.005394
PD2031   PD        0.203856    0.414469    0.463585     0.005394
AU2032   AU        0.204385    0.448589    0.432084     0.007504
AU2033   AU        0.236095    0.414566    0.429405     0.007504
PD2034   PD        0.237227    0.448441    0.463851     0.005394
PD2035   PD        0.272834    0.412666    0.465555     0.005394
AU2036   AU        0.272363    0.448932    0.431916     0.007504
AU2037   AU        0.302963    0.413371    0.432886     0.007504
PD2038   PD        0.304232    0.449359    0.466878     0.005394
AU2039   AU        0.337665    0.413584    0.463184     0.007504
AU2040   AU        0.336040    0.451456    0.431381     0.007504
AU2041   AU        0.370480    0.415387    0.431417     0.007504
AU2042   AU        0.369631    0.447927    0.468311     0.007504
AU2043   AU        0.405273    0.412921    0.466556     0.007504
AU2044   AU        0.404675    0.449678    0.430791     0.007504
AU2045   AU        0.434994    0.414419    0.431028     0.007504
AU2046   AU        0.434852    0.448936    0.464663     0.007504
AU2047   AU        0.470814    0.415224    0.466925     0.007504
AU2048   AU        0.468323    0.449250    0.431457     0.007504
AU2049   AU        0.503501    0.414318    0.432756     0.007504
AU2050   AU        0.503274    0.450442    0.466652     0.007504
AU2051   AU        0.537971    0.416057    0.465638     0.007504
AU2052   AU        0.537601    0.449459    0.433626     0.007504
AU2053   AU        0.570371    0.415055    0.432600     0.007504
AU2054   AU        0.571705    0.450961    0.465509     0.007504
PD2055   PD        0.604212    0.413259    0.465572     0.005394
AU2056   AU        0.604820    0.449634    0.433632     0.007504
PD2057   PD        0.637064    0.413681    0.429672     0.005394
PD2058   PD        0.638255    0.446259    0.467271     0.005394
AU2059   AU        0.670666    0.411467    0.468260     0.007504
AU2060   AU        0.669648    0.445650    0.431818     0.007504
PD2061   PD        0.704613    0.412931    0.432549     0.005394
AU2062   AU        0.703279    0.445878    0.465960     0.007504
AU2063   AU        0.735318    0.411966    0.466874     0.007504
PD2064   PD        0.735372    0.450292    0.432957     0.005394
PD2065   PD        0.769175    0.414076    0.431158     0.005394
PD2066   PD        0.768142    0.448392    0.464955     0.005394
PD2067   PD        0.798291    0.413774    0.464993     0.005394
PD2068   PD        0.802130    0.445662    0.433616     0.005394
PD2069   PD        0.901367    0.453437    0.465839     0.005394
PD2070   PD        0.834210    0.448541    0.467818     0.005394
AU2071   AU        0.042588    0.483535    0.431666     0.007504
PD2072   PD        0.008570    0.476175    0.465125     0.005394
PD2073   PD        0.074860    0.483663    0.466371     0.005394
AU2074   AU        0.073319    0.521343    0.428814     0.007504
AU2075   AU        0.105939    0.485642    0.432867     0.007504
AU2076   AU        0.106473    0.521005    0.464876     0.007504
PD2077   PD        0.138073    0.486559    0.466763     0.005394
PD2078   PD        0.138694    0.521801    0.429674     0.005394
AU2079   AU        0.170457    0.482892    0.432122     0.007504
PD2080   PD        0.171354    0.519480    0.467447     0.005394
AU2081   AU        0.203091    0.483275    0.466445     0.007504
PD2082   PD        0.205293    0.520624    0.431670     0.005394
AU2083   AU        0.239095    0.487591    0.429928     0.007504
AU2084   AU        0.238032    0.521134    0.467333     0.007504
PD2085   PD        0.269836    0.484728    0.465487     0.005394
PD2086   PD        0.270739    0.520970    0.432381     0.005394
AU2087   AU        0.302945    0.486495    0.430457     0.007504
AU2088   AU        0.303180    0.522656    0.465195     0.007504
AU2089   AU        0.338039    0.486323    0.466880     0.007504
AU2090   AU        0.336816    0.519051    0.430623     0.007504
AU2091   AU        0.369868    0.484153    0.432608     0.007504
AU2092   AU        0.371742    0.520369    0.464977     0.007504
AU2093   AU        0.403515    0.483149    0.467179     0.007504
PD2094   PD        0.401588    0.521663    0.430073     0.005394
AU2095   AU        0.435717    0.486449    0.432934     0.007504
AU2096   AU        0.437531    0.522064    0.464240     0.007504
AU2097   AU        0.468282    0.484706    0.465053     0.007504
AU2098   AU        0.468201    0.521984    0.430827     0.007504
AU2099   AU        0.504457    0.485580    0.434580     0.007504
PD2100   PD        0.505370    0.520151    0.469050     0.005394
AU2101   AU        0.539195    0.484868    0.465735     0.007504
AU2102   AU        0.536721    0.522285    0.433183     0.007504
AU2103   AU        0.572742    0.484612    0.432659     0.007504
AU2104   AU        0.571687    0.521973    0.465796     0.007504
AU2105   AU        0.603632    0.485454    0.466018     0.007504
AU2106   AU        0.603272    0.519666    0.430240     0.007504
PD2107   PD        0.634040    0.483777    0.429456     0.005394
PD2108   PD        0.637129    0.520613    0.462753     0.005394
PD2109   PD        0.668758    0.483152    0.466995     0.005394
AU2110   AU        0.669261    0.519266    0.431348     0.007504
PD2111   PD        0.703885    0.486774    0.431996     0.005394
PD2112   PD        0.700339    0.520219    0.464111     0.005394
PD2113   PD        0.736125    0.486190    0.466095     0.005394
PD2114   PD        0.734629    0.521872    0.430559     0.005394
AU2115   AU        0.770158    0.486281    0.428593     0.007504
AU2116   AU        0.767373    0.522127    0.465239     0.007504
PD2117   PD        0.800379    0.484962    0.466306     0.005394
AU2118   AU        0.801452    0.521256    0.434245     0.007504
PD2119   PD        0.834483    0.481921    0.436034     0.005394
PD2120   PD        0.866023    0.551647    0.470224     0.005394
PD2121   PD        0.037447    0.552856    0.430154     0.005394
PD2122   PD        0.072772    0.553283    0.462571     0.005394
PD2123   PD        0.038240    0.630473    0.428203     0.005394
AU2124   AU        0.106988    0.556955    0.431579     0.007504
PD2125   PD        0.103677    0.588806    0.466255     0.005394
PD2126   PD        0.140240    0.555840    0.466587     0.005394
PD2127   PD        0.138374    0.594954    0.430808     0.005394
PD2128   PD        0.172736    0.554700    0.430014     0.005394
PD2129   PD        0.169131    0.591436    0.467811     0.005394
AU2130   AU        0.202988    0.556235    0.466810     0.007504
PD2131   PD        0.202901    0.592032    0.430083     0.005394
PD2132   PD        0.237811    0.558214    0.432098     0.005394
PD2133   PD        0.236471    0.589158    0.466230     0.005394
AU2134   AU        0.272570    0.557103    0.466125     0.007504
PD2135   PD        0.267337    0.593969    0.433287     0.005394
AU2136   AU        0.302668    0.556418    0.431692     0.007504
PD2137   PD        0.303692    0.591772    0.464412     0.005394
AU2138   AU        0.336532    0.557490    0.464543     0.007504
AU2139   AU        0.337031    0.592334    0.432871     0.007504
AU2140   AU        0.367883    0.557527    0.430843     0.007504
AU2141   AU        0.372004    0.593104    0.466065     0.007504
AU2142   AU        0.404877    0.553803    0.465754     0.007504
AU2143   AU        0.402550    0.590309    0.432131     0.007504
AU2144   AU        0.435031    0.558064    0.428524     0.007504
AU2145   AU        0.438048    0.589492    0.466257     0.007504
AU2146   AU        0.470573    0.556148    0.466012     0.007504
AU2147   AU        0.468613    0.592654    0.431720     0.007504
AU2148   AU        0.501945    0.557808    0.433424     0.007504
AU2149   AU        0.502814    0.593798    0.466998     0.007504
AU2150   AU        0.536681    0.558413    0.465517     0.007504
PD2151   PD        0.533962    0.591777    0.433169     0.005394
AU2152   AU        0.570561    0.556782    0.432140     0.007504
AU2153   AU        0.572024    0.590218    0.465906     0.007504
AU2154   AU        0.604281    0.554252    0.464262     0.007504
AU2155   AU        0.603924    0.590087    0.432067     0.007504
AU2156   AU        0.636004    0.555286    0.431403     0.007504
PD2157   PD        0.635633    0.590287    0.465237     0.005394
AU2158   AU        0.667949    0.555293    0.465440     0.007504
AU2159   AU        0.668522    0.591819    0.433955     0.007504
PD2160   PD        0.701587    0.557661    0.433820     0.005394
AU2161   AU        0.701515    0.591969    0.466277     0.007504
AU2162   AU        0.733879    0.556991    0.465394     0.007504
PD2163   PD        0.733563    0.590338    0.432614     0.005394
PD2164   PD        0.769642    0.557900    0.432709     0.005394
AU2165   AU        0.768712    0.589984    0.464611     0.007504
PD2166   PD        0.801653    0.554351    0.467103     0.005394
AU2167   AU        0.802372    0.588776    0.433259     0.007504
PD2168   PD        0.835446    0.553397    0.431439     0.005394
PD2169   PD        0.073861    0.624835    0.463714     0.005394
PD2170   PD        0.071104    0.664511    0.432575     0.005394
AU2171   AU        0.103963    0.629204    0.430323     0.007504
PD2172   PD        0.107952    0.662891    0.465794     0.005394
PD2173   PD        0.137911    0.628933    0.464899     0.005394
PD2174   PD        0.137612    0.661554    0.435076     0.005394
PD2175   PD        0.173584    0.629123    0.432173     0.005394
AU2176   AU        0.172352    0.666103    0.467375     0.007504
PD2177   PD        0.205818    0.627692    0.467305     0.005394
PD2178   PD        0.202947    0.666018    0.432188     0.005394
PD2179   PD        0.235968    0.628052    0.430941     0.005394
PD2180   PD        0.235273    0.661502    0.465642     0.005394
PD2181   PD        0.270649    0.629453    0.467669     0.005394
PD2182   PD        0.269366    0.662793    0.432305     0.005394
AU2183   AU        0.304772    0.630443    0.432140     0.007504
PD2184   PD        0.301763    0.665489    0.465436     0.005394
AU2185   AU        0.337825    0.628249    0.466377     0.007504
AU2186   AU        0.337900    0.662214    0.431255     0.007504
PD2187   PD        0.369333    0.627373    0.432516     0.005394
PD2188   PD        0.369001    0.664564    0.467454     0.005394
PD2189   PD        0.406450    0.625278    0.466128     0.005394
PD2190   PD        0.404304    0.665031    0.433951     0.005394
PD2191   PD        0.437362    0.628813    0.435179     0.005394
PD2192   PD        0.438524    0.664082    0.465989     0.005394
AU2193   AU        0.468465    0.628692    0.466719     0.007504
AU2194   AU        0.469749    0.664328    0.431822     0.007504
AU2195   AU        0.502632    0.627058    0.432687     0.007504
AU2196   AU        0.501920    0.665515    0.466461     0.007504
PD2197   PD        0.538482    0.629119    0.464415     0.005394
PD2198   PD        0.537263    0.663350    0.432842     0.005394
PD2199   PD        0.573025    0.623207    0.433113     0.005394
PD2200   PD        0.569380    0.664665    0.466335     0.005394
PD2201   PD        0.604338    0.626956    0.467230     0.005394
PD2202   PD        0.599466    0.664254    0.433945     0.005394
AU2203   AU        0.637296    0.627931    0.430618     0.007504
AU2204   AU        0.634292    0.664332    0.464633     0.007504
AU2205   AU        0.666837    0.627837    0.464307     0.007504
PD2206   PD        0.669522    0.660753    0.432561     0.005394
AU2207   AU        0.703033    0.626801    0.432815     0.007504
AU2208   AU        0.701905    0.662576    0.465307     0.007504
PD2209   PD        0.732807    0.627763    0.466745     0.005394
AU2210   AU        0.736151    0.664455    0.434698     0.007504
AU2211   AU        0.766036    0.625351    0.434559     0.007504
PD2212   PD        0.768533    0.662770    0.466960     0.005394
PD2213   PD        0.800010    0.626884    0.464139     0.005394
AU2214   AU        0.803707    0.700475    0.468217     0.007504
AU2215   AU        0.105867    0.698644    0.429769     0.007504
PD2216   PD        0.108781    0.738143    0.464399     0.005394
AU2217   AU        0.137173    0.699158    0.465699     0.007504
PD2218   PD        0.138381    0.732970    0.432329     0.005394
PD2219   PD        0.171062    0.700954    0.432400     0.005394
AU2220   AU        0.169491    0.735294    0.466681     0.007504
PD2221   PD        0.204832    0.702620    0.467118     0.005394
PD2222   PD        0.204805    0.734511    0.432544     0.005394
AU2223   AU        0.238827    0.696269    0.432540     0.007504
PD2224   PD        0.237604    0.734254    0.466617     0.005394
AU2225   AU        0.267954    0.697608    0.467942     0.007504
PD2226   PD        0.270184    0.733124    0.433942     0.005394
PD2227   PD        0.304600    0.699625    0.432246     0.005394
PD2228   PD        0.302651    0.732206    0.468504     0.005394
PD2229   PD        0.336276    0.698404    0.464310     0.005394
PD2230   PD        0.334329    0.737270    0.433748     0.005394
PD2231   PD        0.371757    0.697469    0.431256     0.005394
PD2232   PD        0.370164    0.734953    0.465297     0.005394
PD2233   PD        0.400950    0.699417    0.468879     0.005394
PD2234   PD        0.403091    0.735652    0.434858     0.005394
PD2235   PD        0.433907    0.700383    0.432903     0.005394
PD2236   PD        0.433085    0.736352    0.467186     0.005394
PD2237   PD        0.468892    0.702475    0.467845     0.005394
PD2238   PD        0.470627    0.735921    0.432011     0.005394
PD2239   PD        0.499721    0.700418    0.430508     0.005394
PD2240   PD        0.505331    0.733926    0.467274     0.005394
PD2241   PD        0.537273    0.701286    0.468750     0.005394
PD2242   PD        0.533721    0.736144    0.430556     0.005394
PD2243   PD        0.568745    0.699941    0.431541     0.005394
PD2244   PD        0.567823    0.736940    0.467252     0.005394
PD2245   PD        0.601615    0.700165    0.467847     0.005394
AU2246   AU        0.600614    0.734393    0.430596     0.007504
AU2247   AU        0.635980    0.697616    0.431488     0.007504
PD2248   PD        0.636123    0.732374    0.466198     0.005394
AU2249   AU        0.669515    0.699030    0.463971     0.007504
PD2250   PD        0.668959    0.732115    0.430482     0.005394
PD2251   PD        0.703813    0.696371    0.431261     0.005394
AU2252   AU        0.703425    0.732677    0.462671     0.007504
PD2253   PD        0.734972    0.700719    0.465999     0.005394
AU2254   AU        0.736066    0.733827    0.430186     0.007504
PD2255   PD        0.769469    0.700252    0.435711     0.005394
PD2256   PD        0.769367    0.732020    0.469427     0.005394
PD2257   PD        0.104189    0.773307    0.498495     0.005394
AU2258   AU        0.174050    0.768482    0.431773     0.007504
PD2259   PD        0.172002    0.808482    0.464778     0.005394
AU2260   AU        0.202749    0.772493    0.467103     0.007504
AU2261   AU        0.202581    0.806503    0.432679     0.007504
PD2262   PD        0.235925    0.771253    0.434443     0.005394
AU2263   AU        0.237197    0.805450    0.466389     0.007504
PD2264   PD        0.269944    0.771575    0.464784     0.005394
PD2265   PD        0.271148    0.808135    0.433464     0.005394
PD2266   PD        0.304914    0.772837    0.436922     0.005394
AU2267   AU        0.301679    0.807368    0.467368     0.007504
AU2268   AU        0.335734    0.772376    0.469575     0.007504
PD2269   PD        0.335289    0.806457    0.433424     0.005394
AU2270   AU        0.368362    0.769188    0.435074     0.007504
AU2271   AU        0.369452    0.807106    0.469162     0.007504
PD2272   PD        0.404131    0.772218    0.466783     0.005394
PD2273   PD        0.403550    0.805724    0.433105     0.005394
PD2274   PD        0.435125    0.770118    0.433989     0.005394
AU2275   AU        0.437050    0.806179    0.466677     0.007504
PD2276   PD        0.470301    0.768832    0.469535     0.005394
AU2277   AU        0.469692    0.802775    0.435650     0.007504
PD2278   PD        0.504799    0.769087    0.434351     0.005394
AU2279   AU        0.505005    0.806994    0.468994     0.007504
AU2280   AU        0.534482    0.770513    0.467586     0.007504
PD2281   PD        0.536249    0.805862    0.432002     0.005394
AU2282   AU        0.567798    0.769796    0.431785     0.007504
AU2283   AU        0.567747    0.805025    0.467010     0.007504
PD2284   PD        0.601545    0.769719    0.468242     0.005394
PD2285   PD        0.599719    0.806195    0.435341     0.005394
PD2286   PD        0.634818    0.766998    0.433144     0.005394
PD2287   PD        0.635728    0.805741    0.468416     0.005394
PD2288   PD        0.669111    0.767323    0.465141     0.005394
PD2289   PD        0.667619    0.803925    0.433633     0.005394
PD2290   PD        0.700634    0.769499    0.428856     0.005394
PD2291   PD        0.703446    0.807700    0.459342     0.005394
PD2292   PD        0.735036    0.767395    0.463177     0.005394
PD2293   PD        0.203933    0.838998    0.465342     0.005394
PD2294   PD        0.238736    0.842367    0.435697     0.005394
AU2295   AU        0.272040    0.844957    0.467518     0.007504
PD2296   PD        0.274601    0.879696    0.434202     0.005394
PD2297   PD        0.303374    0.840297    0.434265     0.005394
PD2298   PD        0.304216    0.878936    0.469245     0.005394
AU2299   AU        0.336436    0.840481    0.466557     0.007504
PD2300   PD        0.336223    0.877218    0.434635     0.005394
PD2301   PD        0.370981    0.839887    0.432868     0.005394
AU2302   AU        0.371115    0.874387    0.465963     0.007504
PD2303   PD        0.403933    0.838487    0.467192     0.005394
AU2304   AU        0.403819    0.873918    0.433466     0.007504
AU2305   AU        0.438420    0.837722    0.433067     0.007504
PD2306   PD        0.439249    0.873672    0.466396     0.005394
PD2307   PD        0.468327    0.839012    0.467349     0.005394
PD2308   PD        0.469811    0.876696    0.431842     0.005394
AU2309   AU        0.501968    0.842663    0.435150     0.007504
AU2310   AU        0.501749    0.877511    0.467491     0.007504
PD2311   PD        0.534451    0.840688    0.465045     0.005394
PD2312   PD        0.538090    0.873734    0.433420     0.005394
PD2313   PD        0.567448    0.841626    0.435653     0.005394
PD2314   PD        0.567203    0.879046    0.466686     0.005394
AU2315   AU        0.599957    0.842562    0.466821     0.007504
PD2316   PD        0.600462    0.874018    0.431553     0.005394
PD2317   PD        0.632506    0.836499    0.435588     0.005394
PD2318   PD        0.673690    0.878119    0.429150     0.005394
AU2319   AU        0.370239    0.912729    0.430517     0.007504
PD2320   PD        0.405676    0.909188    0.468031     0.005394
AU2321   AU        0.434989    0.911098    0.434139     0.007504
PD2322   PD        0.471782    0.907580    0.467895     0.005394
AU2323   AU        0.504700    0.909545    0.434517     0.007504
PD2324   PD        0.273658    0.095250    0.494114     0.005394
PD2325   PD        0.304000    0.094846    0.531043     0.005394
PD2326   PD        0.337733    0.094437    0.498238     0.005394
PD2327   PD        0.369738    0.060504    0.499412     0.005394
PD2328   PD        0.401021    0.095335    0.501645     0.005394
PD2329   PD        0.435362    0.059639    0.496217     0.005394
PD2330   PD        0.440031    0.096623    0.527470     0.005394
PD2331   PD        0.470867    0.098463    0.496606     0.005394
PD2332   PD        0.503837    0.097752    0.529831     0.005394
AU2333   AU        0.535974    0.098055    0.498703     0.007504
PD2334   PD        0.569885    0.095847    0.532849     0.005394
PD2335   PD        0.623765    0.078375    0.596655     0.005394
AU2336   AU        0.206755    0.166247    0.497201     0.007504
PD2337   PD        0.201909    0.099655    0.575180     0.005394
PD2338   PD        0.239397    0.162507    0.529611     0.005394
PD2339   PD        0.271095    0.130453    0.527657     0.005394
AU2340   AU        0.273653    0.166864    0.497064     0.007504
PD2341   PD        0.304945    0.131378    0.497496     0.005394
AU2342   AU        0.303057    0.165205    0.531696     0.007504
PD2343   PD        0.338268    0.130885    0.532671     0.005394
AU2344   AU        0.337467    0.165373    0.499850     0.007504
PD2345   PD        0.369640    0.130439    0.499456     0.005394
AU2346   AU        0.371183    0.165258    0.531760     0.007504
PD2347   PD        0.402754    0.132536    0.528896     0.005394
AU2348   AU        0.402277    0.168539    0.496798     0.007504
PD2349   PD        0.437735    0.133118    0.499113     0.005394
PD2350   PD        0.437686    0.165373    0.530249     0.005394
PD2351   PD        0.471056    0.130600    0.530574     0.005394
AU2352   AU        0.470962    0.166715    0.496075     0.007504
AU2353   AU        0.504096    0.132182    0.498060     0.007504
PD2354   PD        0.503967    0.166735    0.532806     0.005394
PD2355   PD        0.536704    0.133954    0.531489     0.005394
PD2356   PD        0.534501    0.166984    0.500411     0.005394
AU2357   AU        0.567662    0.132860    0.499788     0.007504
PD2358   PD        0.570145    0.168263    0.530474     0.005394
PD2359   PD        0.601471    0.132393    0.530502     0.005394
AU2360   AU        0.604176    0.165592    0.498334     0.007504
PD2361   PD        0.694056    0.064357    0.502467     0.005394
AU2362   AU        0.634774    0.164538    0.532049     0.007504
PD2363   PD        0.667395    0.164450    0.496670     0.005394
PD2364   PD        0.140420    0.235245    0.499892     0.005394
PD2365   PD        0.173234    0.202362    0.500283     0.005394
PD2366   PD        0.174498    0.237158    0.533537     0.005394
PD2367   PD        0.205239    0.200207    0.531210     0.005394
AU2368   AU        0.203175    0.237272    0.497535     0.007504
AU2369   AU        0.239587    0.200699    0.498860     0.007504
AU2370   AU        0.238246    0.238052    0.531284     0.007504
PD2371   PD        0.271612    0.200804    0.532310     0.005394
AU2372   AU        0.271272    0.236059    0.499215     0.007504
AU2373   AU        0.304338    0.202335    0.499091     0.007504
PD2374   PD        0.303749    0.235698    0.531404     0.005394
PD2375   PD        0.335845    0.201081    0.530924     0.005394
PD2376   PD        0.335974    0.237818    0.497166     0.005394
PD2377   PD        0.369966    0.202683    0.498813     0.005394
PD2378   PD        0.370341    0.236529    0.531881     0.005394
AU2379   AU        0.403065    0.202125    0.532153     0.007504
PD2380   PD        0.405352    0.237596    0.497863     0.005394
AU2381   AU        0.436070    0.199555    0.497989     0.007504
PD2382   PD        0.436352    0.240317    0.532128     0.005394
PD2383   PD        0.470647    0.202960    0.530912     0.005394
PD2384   PD        0.470468    0.237154    0.496832     0.005394
AU2385   AU        0.503027    0.201784    0.498057     0.007504
PD2386   PD        0.503926    0.236827    0.531584     0.005394
AU2387   AU        0.537984    0.204369    0.531619     0.007504
AU2388   AU        0.538005    0.236578    0.495925     0.007504
AU2389   AU        0.571544    0.200456    0.497674     0.007504
AU2390   AU        0.571031    0.237032    0.531206     0.007504
AU2391   AU        0.603774    0.202606    0.529927     0.007504
PD2392   PD        0.604551    0.236625    0.496795     0.005394
PD2393   PD        0.635244    0.201637    0.497691     0.005394
PD2394   PD        0.635973    0.239137    0.532112     0.005394
AU2395   AU        0.667285    0.202054    0.533439     0.007504
PD2396   PD        0.670018    0.235278    0.498444     0.005394
PD2397   PD        0.704486    0.201256    0.500647     0.005394
AU2398   AU        0.701984    0.238673    0.532586     0.007504
PD2399   PD        0.734255    0.236267    0.497576     0.005394
PD2400   PD        0.040198    0.305031    0.463506     0.005394
PD2401   PD        0.107882    0.270500    0.496044     0.005394
AU2402   AU        0.102962    0.307818    0.532181     0.007504
PD2403   PD        0.135774    0.273291    0.529478     0.005394
PD2404   PD        0.139485    0.309243    0.497669     0.005394
AU2405   AU        0.170049    0.272068    0.495992     0.007504
AU2406   AU        0.171465    0.305096    0.531668     0.007504
PD2407   PD        0.206593    0.270441    0.530443     0.005394
AU2408   AU        0.206212    0.305789    0.499028     0.007504
AU2409   AU        0.238964    0.272333    0.497725     0.007504
AU2410   AU        0.239027    0.307235    0.533483     0.007504
AU2411   AU        0.271398    0.271358    0.531582     0.007504
AU2412   AU        0.269487    0.308220    0.498186     0.007504
AU2413   AU        0.302280    0.272114    0.497350     0.007504
PD2414   PD        0.305366    0.308884    0.530092     0.005394
AU2415   AU        0.335831    0.271975    0.530482     0.007504
AU2416   AU        0.336859    0.307428    0.496182     0.007504
AU2417   AU        0.369767    0.273261    0.496922     0.007504
PD2418   PD        0.370420    0.309785    0.532608     0.005394
PD2419   PD        0.403176    0.270783    0.531592     0.005394
AU2420   AU        0.403136    0.309647    0.496342     0.007504
AU2421   AU        0.436608    0.274020    0.495583     0.007504
PD2422   PD        0.437435    0.306265    0.531021     0.005394
PD2423   PD        0.470996    0.273071    0.533596     0.005394
AU2424   AU        0.471390    0.307034    0.499518     0.007504
AU2425   AU        0.505764    0.269145    0.495979     0.007504
PD2426   PD        0.504412    0.306794    0.530568     0.005394
PD2427   PD        0.536999    0.272076    0.531175     0.005394
PD2428   PD        0.537988    0.307351    0.498115     0.005394
PD2429   PD        0.570554    0.268494    0.497912     0.005394
PD2430   PD        0.570575    0.303705    0.532910     0.005394
PD2431   PD        0.604908    0.272042    0.531924     0.005394
PD2432   PD        0.604642    0.306535    0.499538     0.005394
AU2433   AU        0.636160    0.270491    0.497863     0.007504
PD2434   PD        0.636170    0.310624    0.530002     0.005394
PD2435   PD        0.669344    0.276196    0.529855     0.005394
PD2436   PD        0.669558    0.305916    0.495707     0.005394
PD2437   PD        0.703693    0.270365    0.497535     0.005394
AU2438   AU        0.702169    0.308163    0.532382     0.007504
PD2439   PD        0.733796    0.273612    0.532029     0.005394
PD2440   PD        0.735141    0.305829    0.497748     0.005394
PD2441   PD        0.767802    0.270192    0.495668     0.005394
PD2442   PD        0.767480    0.304933    0.532466     0.005394
PD2443   PD        0.801665    0.304845    0.496956     0.005394
PD2444   PD        0.071007    0.346171    0.528677     0.005394
AU2445   AU        0.071535    0.379970    0.493833     0.007504
PD2446   PD        0.106105    0.345534    0.498404     0.005394
PD2447   PD        0.106271    0.379386    0.530659     0.005394
PD2448   PD        0.138904    0.341593    0.530920     0.005394
PD2449   PD        0.138059    0.377024    0.498105     0.005394
PD2450   PD        0.173187    0.340903    0.497291     0.005394
PD2451   PD        0.168791    0.376538    0.533082     0.005394
PD2452   PD        0.204999    0.341878    0.530273     0.005394
PD2453   PD        0.203774    0.376299    0.495853     0.005394
PD2454   PD        0.238061    0.342572    0.500053     0.005394
PD2455   PD        0.238076    0.379869    0.534513     0.005394
AU2456   AU        0.271014    0.343216    0.533499     0.007504
PD2457   PD        0.268458    0.378471    0.499591     0.005394
AU2458   AU        0.300912    0.343055    0.497362     0.007504
AU2459   AU        0.304070    0.377802    0.533521     0.007504
AU2460   AU        0.335485    0.342866    0.530443     0.007504
AU2461   AU        0.335364    0.375601    0.498974     0.007504
PD2462   PD        0.368539    0.343923    0.497248     0.005394
AU2463   AU        0.368953    0.378809    0.533590     0.007504
PD2464   PD        0.403134    0.341408    0.533241     0.005394
AU2465   AU        0.403137    0.376183    0.496958     0.007504
AU2466   AU        0.435746    0.343671    0.497483     0.007504
PD2467   PD        0.433828    0.377618    0.530574     0.005394
AU2468   AU        0.470680    0.342464    0.532060     0.007504
PD2469   PD        0.467553    0.380367    0.498531     0.005394
AU2470   AU        0.503665    0.342429    0.499433     0.007504
AU2471   AU        0.502839    0.376951    0.531837     0.007504
AU2472   AU        0.535836    0.342766    0.530926     0.007504
AU2473   AU        0.537633    0.378217    0.496157     0.007504
PD2474   PD        0.569877    0.342986    0.498359     0.005394
AU2475   AU        0.569246    0.378712    0.532159     0.007504
PD2476   PD        0.602714    0.343904    0.531222     0.005394
AU2477   AU        0.605708    0.379478    0.498331     0.007504
PD2478   PD        0.638428    0.343476    0.499552     0.005394
AU2479   AU        0.635438    0.378735    0.533728     0.007504
PD2480   PD        0.670350    0.344471    0.533460     0.005394
PD2481   PD        0.671442    0.378581    0.499849     0.005394
AU2482   AU        0.702664    0.342639    0.498189     0.007504
AU2483   AU        0.702295    0.376847    0.533477     0.007504
PD2484   PD        0.736112    0.341279    0.533168     0.005394
PD2485   PD        0.737496    0.375777    0.500595     0.005394
AU2486   AU        0.767519    0.340462    0.499354     0.007504
AU2487   AU        0.770463    0.376096    0.531912     0.007504
AU2488   AU        0.799905    0.339405    0.528991     0.007504
PD2489   PD        0.803065    0.377943    0.497027     0.005394
AU2490   AU        0.072486    0.413560    0.529438     0.007504
AU2491   AU        0.073192    0.450195    0.497415     0.007504
AU2492   AU        0.106532    0.413047    0.499450     0.007504
AU2493   AU        0.104613    0.449483    0.534047     0.007504
AU2494   AU        0.137717    0.413490    0.533768     0.007504
PD2495   PD        0.138458    0.449256    0.500770     0.005394
PD2496   PD        0.170419    0.411892    0.501501     0.005394
AU2497   AU        0.171243    0.448131    0.533777     0.007504
PD2498   PD        0.204524    0.413125    0.532152     0.005394
PD2499   PD        0.202925    0.447643    0.499993     0.005394
AU2500   AU        0.236808    0.414525    0.498757     0.007504
AU2501   AU        0.235883    0.449935    0.531200     0.007504
AU2502   AU        0.268807    0.415564    0.532436     0.007504
AU2503   AU        0.269847    0.451955    0.499692     0.007504
AU2504   AU        0.303659    0.412798    0.500596     0.007504
AU2505   AU        0.303245    0.449374    0.530855     0.007504
AU2506   AU        0.335875    0.413187    0.532650     0.007504
PD2507   PD        0.337672    0.451405    0.500464     0.005394
AU2508   AU        0.367284    0.411804    0.498846     0.007504
PD2509   PD        0.367102    0.449577    0.532848     0.005394
AU2510   AU        0.402681    0.412862    0.532716     0.007504
AU2511   AU        0.404748    0.447879    0.500657     0.007504
AU2512   AU        0.436458    0.413932    0.499895     0.007504
AU2513   AU        0.435401    0.449264    0.534437     0.007504
PD2514   PD        0.471416    0.413391    0.532340     0.005394
AU2515   AU        0.468358    0.450236    0.499332     0.007504
AU2516   AU        0.503414    0.412851    0.498280     0.007504
AU2517   AU        0.503927    0.448318    0.531829     0.007504
AU2518   AU        0.536737    0.412526    0.530920     0.007504
AU2519   AU        0.539241    0.449977    0.498345     0.007504
AU2520   AU        0.570681    0.415665    0.497185     0.007504
PD2521   PD        0.569817    0.447876    0.532599     0.005394
AU2522   AU        0.602096    0.413401    0.531873     0.007504
PD2523   PD        0.603324    0.449693    0.499620     0.005394
AU2524   AU        0.635950    0.416540    0.500351     0.007504
PD2525   PD        0.633161    0.447596    0.532785     0.005394
AU2526   AU        0.669932    0.411578    0.531975     0.007504
PD2527   PD        0.670402    0.449058    0.500809     0.005394
AU2528   AU        0.702985    0.411799    0.500491     0.007504
AU2529   AU        0.702706    0.448758    0.532710     0.007504
AU2530   AU        0.736756    0.412300    0.533508     0.007504
AU2531   AU        0.735355    0.446695    0.498575     0.007504
PD2532   PD        0.766424    0.413057    0.500467     0.005394
AU2533   AU        0.768721    0.449390    0.532926     0.007504
AU2534   AU        0.801248    0.415262    0.531311     0.007504
AU2535   AU        0.798417    0.449430    0.497992     0.007504
PD2536   PD        0.040988    0.485666    0.501856     0.005394
PD2537   PD        0.071452    0.482413    0.529684     0.005394
PD2538   PD        0.072993    0.521187    0.501611     0.005394
AU2539   AU        0.106437    0.486439    0.500916     0.007504
PD2540   PD        0.107076    0.518187    0.531211     0.005394
AU2541   AU        0.138524    0.482776    0.534293     0.007504
PD2542   PD        0.138708    0.520585    0.499018     0.005394
AU2543   AU        0.170081    0.485351    0.500656     0.007504
AU2544   AU        0.170899    0.521844    0.533971     0.007504
AU2545   AU        0.204076    0.486443    0.532965     0.007504
AU2546   AU        0.204862    0.519833    0.499183     0.007504
PD2547   PD        0.236708    0.483824    0.498721     0.005394
AU2548   AU        0.236522    0.521530    0.530856     0.007504
AU2549   AU        0.269326    0.483668    0.531691     0.007504
PD2550   PD        0.269163    0.518944    0.497576     0.005394
PD2551   PD        0.302883    0.486826    0.498089     0.005394
PD2552   PD        0.304311    0.520545    0.531562     0.005394
PD2553   PD        0.334729    0.486392    0.530674     0.005394
AU2554   AU        0.335860    0.521277    0.499781     0.007504
AU2555   AU        0.370352    0.486177    0.500201     0.007504
AU2556   AU        0.369910    0.520008    0.532021     0.007504
AU2557   AU        0.404262    0.485399    0.531791     0.007504
AU2558   AU        0.404021    0.522803    0.499573     0.007504
AU2559   AU        0.437416    0.486416    0.499376     0.007504
PD2560   PD        0.438665    0.519651    0.533120     0.005394
AU2561   AU        0.470024    0.485384    0.531220     0.007504
PD2562   PD        0.469692    0.521642    0.501364     0.005394
PD2563   PD        0.504651    0.484603    0.499344     0.005394
AU2564   AU        0.501934    0.522902    0.532603     0.007504
AU2565   AU        0.535947    0.485036    0.533340     0.007504
AU2566   AU        0.537937    0.520950    0.500895     0.007504
PD2567   PD        0.570152    0.485493    0.500301     0.005394
AU2568   AU        0.571255    0.521128    0.534009     0.007504
PD2569   PD        0.603931    0.486075    0.534204     0.005394
AU2570   AU        0.605518    0.520258    0.499208     0.007504
AU2571   AU        0.635560    0.483467    0.498758     0.007504
AU2572   AU        0.638716    0.520623    0.533392     0.007504
PD2573   PD        0.669161    0.481952    0.529702     0.005394
PD2574   PD        0.668629    0.520042    0.495885     0.005394
AU2575   AU        0.703303    0.482869    0.496912     0.007504
PD2576   PD        0.700466    0.518174    0.532187     0.005394
PD2577   PD        0.736011    0.483495    0.532723     0.005394
AU2578   AU        0.735167    0.520133    0.498699     0.007504
AU2579   AU        0.767312    0.485555    0.498760     0.007504
AU2580   AU        0.767460    0.520998    0.535124     0.007504
PD2581   PD        0.801568    0.487004    0.530884     0.005394
PD2582   PD        0.801197    0.519710    0.500401     0.005394
PD2583   PD        0.872092    0.443249    0.498292     0.005394
PD2584   PD        0.075210    0.555126    0.535367     0.005394
PD2585   PD        0.011614    0.586596    0.499514     0.005394
PD2586   PD        0.107561    0.554129    0.499098     0.005394
PD2587   PD        0.104690    0.589704    0.531846     0.005394
PD2588   PD        0.137882    0.556433    0.532955     0.005394
PD2589   PD        0.139059    0.593769    0.500281     0.005394
AU2590   AU        0.168422    0.555953    0.501860     0.007504
PD2591   PD        0.169556    0.591876    0.533463     0.005394
PD2592   PD        0.203532    0.556314    0.532694     0.005394
PD2593   PD        0.200915    0.593273    0.499048     0.005394
AU2594   AU        0.238110    0.556493    0.499705     0.007504
AU2595   AU        0.238051    0.592409    0.535051     0.007504
PD2596   PD        0.269665    0.558231    0.535227     0.005394
AU2597   AU        0.267877    0.593958    0.499349     0.007504
AU2598   AU        0.302646    0.558042    0.498728     0.007504
PD2599   PD        0.305447    0.592344    0.535602     0.005394
AU2600   AU        0.338173    0.557020    0.532242     0.007504
AU2601   AU        0.336047    0.591457    0.497187     0.007504
AU2602   AU        0.368229    0.557645    0.497073     0.007504
PD2603   PD        0.368018    0.593193    0.530154     0.005394
AU2604   AU        0.401773    0.556540    0.532745     0.007504
AU2605   AU        0.402162    0.591319    0.498362     0.007504
AU2606   AU        0.439730    0.557628    0.498959     0.007504
PD2607   PD        0.432835    0.590671    0.534384     0.005394
PD2608   PD        0.469346    0.556590    0.533662     0.005394
AU2609   AU        0.469428    0.592185    0.501878     0.007504
AU2610   AU        0.504776    0.558935    0.499163     0.007504
AU2611   AU        0.504201    0.592402    0.535574     0.007504
AU2612   AU        0.537308    0.556183    0.534439     0.007504
PD2613   PD        0.540291    0.595587    0.500800     0.005394
PD2614   PD        0.570294    0.558267    0.500824     0.005394
AU2615   AU        0.570719    0.590308    0.533395     0.007504
AU2616   AU        0.603956    0.554432    0.533905     0.007504
AU2617   AU        0.604260    0.592803    0.501450     0.007504
AU2618   AU        0.637164    0.554816    0.500036     0.007504
AU2619   AU        0.638004    0.589912    0.533464     0.007504
PD2620   PD        0.671679    0.554477    0.531134     0.005394
AU2621   AU        0.668544    0.590885    0.498421     0.007504
PD2622   PD        0.699767    0.556316    0.497335     0.005394
PD2623   PD        0.701152    0.589549    0.531592     0.005394
PD2624   PD        0.734731    0.554502    0.531056     0.005394
AU2625   AU        0.734434    0.590149    0.499999     0.007504
PD2626   PD        0.765295    0.555674    0.499407     0.005394
AU2627   AU        0.767506    0.588181    0.531921     0.007504
PD2628   PD        0.800482    0.556634    0.529492     0.005394
PD2629   PD        0.798010    0.591111    0.498398     0.005394
PD2630   PD        0.073506    0.624102    0.532558     0.005394
PD2631   PD        0.073988    0.660508    0.501797     0.005394
PD2632   PD        0.107587    0.627527    0.500651     0.005394
AU2633   AU        0.104007    0.663551    0.533104     0.007504
AU2634   AU        0.137465    0.627597    0.534709     0.007504
PD2635   PD        0.138337    0.661080    0.500612     0.005394
PD2636   PD        0.169021    0.628044    0.499527     0.005394
PD2637   PD        0.172303    0.664773    0.531479     0.005394
AU2638   AU        0.202042    0.629238    0.533581     0.007504
PD2639   PD        0.203708    0.663730    0.500880     0.005394
PD2640   PD        0.236106    0.629558    0.500224     0.005394
AU2641   AU        0.238163    0.662397    0.534534     0.007504
AU2642   AU        0.268559    0.628945    0.532798     0.007504
PD2643   PD        0.269958    0.665950    0.502264     0.005394
PD2644   PD        0.304414    0.628249    0.498821     0.005394
AU2645   AU        0.301488    0.663372    0.533585     0.007504
AU2646   AU        0.335390    0.627460    0.532918     0.007504
PD2647   PD        0.337685    0.666221    0.500609     0.005394
PD2648   PD        0.372600    0.629310    0.497967     0.005394
PD2649   PD        0.369452    0.664361    0.535235     0.005394
AU2650   AU        0.404608    0.629642    0.533179     0.007504
PD2651   PD        0.408565    0.665884    0.498546     0.005394
PD2652   PD        0.439037    0.626700    0.501451     0.005394
AU2653   AU        0.438115    0.663713    0.535459     0.007504
AU2654   AU        0.470700    0.627602    0.533450     0.007504
AU2655   AU        0.469792    0.664783    0.501742     0.007504
AU2656   AU        0.502740    0.627615    0.498429     0.007504
AU2657   AU        0.501279    0.664764    0.535684     0.007504
AU2658   AU        0.536123    0.629970    0.536640     0.007504
PD2659   PD        0.534688    0.664468    0.499409     0.005394
PD2660   PD        0.571916    0.629221    0.501033     0.005394
AU2661   AU        0.570994    0.662535    0.537303     0.007504
AU2662   AU        0.603132    0.626147    0.534236     0.007504
PD2663   PD        0.605434    0.665295    0.500661     0.005394
AU2664   AU        0.637911    0.625325    0.500107     0.007504
AU2665   AU        0.635351    0.663218    0.533577     0.007504
PD2666   PD        0.668145    0.628265    0.534447     0.005394
PD2667   PD        0.670101    0.661741    0.499802     0.005394
PD2668   PD        0.702280    0.627933    0.498431     0.005394
AU2669   AU        0.701628    0.663168    0.533840     0.007504
PD2670   PD        0.734508    0.627651    0.531933     0.005394
AU2671   AU        0.735048    0.663522    0.498655     0.007504
PD2672   PD        0.766554    0.625686    0.497189     0.005394
PD2673   PD        0.769958    0.666752    0.530944     0.005394
PD2674   PD        0.802875    0.623236    0.530004     0.005394
PD2675   PD        0.812105    0.659583    0.494066     0.005394
PD2676   PD        0.106093    0.698334    0.498265     0.005394
AU2677   AU        0.140687    0.699585    0.530929     0.007504
AU2678   AU        0.140624    0.735962    0.499655     0.007504
AU2679   AU        0.173412    0.698385    0.500116     0.007504
PD2680   PD        0.170887    0.734657    0.532419     0.005394
AU2681   AU        0.205213    0.699533    0.534543     0.007504
PD2682   PD        0.202781    0.736185    0.500527     0.005394
PD2683   PD        0.235204    0.698683    0.500714     0.005394
PD2684   PD        0.235979    0.734375    0.535021     0.005394
AU2685   AU        0.269224    0.700989    0.535086     0.007504
AU2686   AU        0.268713    0.736249    0.501468     0.007504
AU2687   AU        0.304827    0.701150    0.501989     0.007504
PD2688   PD        0.304086    0.737747    0.533738     0.005394
PD2689   PD        0.336505    0.696751    0.534192     0.005394
PD2690   PD        0.336620    0.736049    0.498121     0.005394
PD2691   PD        0.371826    0.702549    0.499652     0.005394
PD2692   PD        0.368580    0.738960    0.533996     0.005394
AU2693   AU        0.404597    0.700323    0.534347     0.007504
PD2694   PD        0.403730    0.736535    0.502834     0.005394
PD2695   PD        0.438993    0.701728    0.501474     0.005394
AU2696   AU        0.436494    0.735125    0.536972     0.007504
PD2697   PD        0.470203    0.700177    0.535674     0.005394
AU2698   AU        0.471069    0.736320    0.502868     0.007504
AU2699   AU        0.504407    0.698453    0.500839     0.007504
PD2700   PD        0.503710    0.733000    0.535722     0.005394
AU2701   AU        0.534938    0.697630    0.537174     0.007504
PD2702   PD        0.537623    0.733942    0.501107     0.005394
PD2703   PD        0.568022    0.699197    0.502293     0.005394
PD2704   PD        0.570916    0.733644    0.534407     0.005394
PD2705   PD        0.603516    0.699714    0.536248     0.005394
PD2706   PD        0.604941    0.731477    0.500293     0.005394
AU2707   AU        0.639654    0.699590    0.500400     0.007504
PD2708   PD        0.639256    0.734271    0.532041     0.005394
PD2709   PD        0.668643    0.700861    0.534559     0.005394
PD2710   PD        0.670928    0.736386    0.499149     0.005394
PD2711   PD        0.702230    0.697416    0.499690     0.005394
PD2712   PD        0.700329    0.733751    0.532857     0.005394
PD2713   PD        0.733395    0.696593    0.538206     0.005394
PD2714   PD        0.765877    0.735423    0.530266     0.005394
PD2715   PD        0.766553    0.700691    0.498143     0.005394
AU2716   AU        0.168547    0.772616    0.498771     0.007504
AU2717   AU        0.203016    0.770527    0.532397     0.007504
AU2718   AU        0.203206    0.808712    0.499005     0.007504
PD2719   PD        0.236628    0.770550    0.496854     0.005394
PD2720   PD        0.235779    0.802427    0.531391     0.005394
PD2721   PD        0.268888    0.771489    0.532153     0.005394
AU2722   AU        0.268609    0.805953    0.500273     0.007504
AU2723   AU        0.302826    0.771654    0.499358     0.007504
AU2724   AU        0.300063    0.804906    0.533899     0.007504
PD2725   PD        0.336320    0.773030    0.530944     0.005394
PD2726   PD        0.335198    0.807684    0.500847     0.005394
PD2727   PD        0.369440    0.771799    0.501186     0.005394
AU2728   AU        0.369630    0.805651    0.532983     0.007504
PD2729   PD        0.404635    0.772208    0.535106     0.005394
PD2730   PD        0.403001    0.804937    0.500267     0.005394
PD2731   PD        0.437192    0.769529    0.500216     0.005394
PD2732   PD        0.435896    0.806704    0.532513     0.005394
AU2733   AU        0.469301    0.770481    0.534306     0.007504
AU2734   AU        0.470716    0.806551    0.499179     0.007504
AU2735   AU        0.502650    0.770320    0.500905     0.007504
AU2736   AU        0.502488    0.805934    0.535138     0.007504
AU2737   AU        0.534180    0.766664    0.535474     0.007504
AU2738   AU        0.535376    0.805313    0.502508     0.007504
PD2739   PD        0.569620    0.771643    0.500115     0.005394
PD2740   PD        0.569425    0.804915    0.534771     0.005394
PD2741   PD        0.603966    0.771790    0.534026     0.005394
PD2742   PD        0.600561    0.806812    0.500183     0.005394
AU2743   AU        0.635173    0.770886    0.500567     0.007504
PD2744   PD        0.639381    0.803528    0.535620     0.005394
PD2745   PD        0.700969    0.808422    0.531786     0.005394
PD2746   PD        0.665395    0.806950    0.496534     0.005394
PD2747   PD        0.710265    0.767065    0.498362     0.005394
PD2748   PD        0.236742    0.841067    0.500110     0.005394
AU2749   AU        0.270385    0.841086    0.531246     0.007504
AU2750   AU        0.271076    0.878798    0.501627     0.007504
AU2751   AU        0.302011    0.840075    0.502211     0.007504
PD2752   PD        0.304601    0.879532    0.532675     0.005394
AU2753   AU        0.334677    0.840166    0.533683     0.007504
PD2754   PD        0.336235    0.874894    0.500398     0.005394
AU2755   AU        0.368316    0.840425    0.501455     0.007504
AU2756   AU        0.366065    0.874422    0.533671     0.007504
AU2757   AU        0.404499    0.839960    0.535358     0.007504
PD2758   PD        0.404861    0.873378    0.500918     0.005394
AU2759   AU        0.436583    0.840229    0.499861     0.007504
AU2760   AU        0.434628    0.874915    0.530852     0.007504
AU2761   AU        0.469741    0.840931    0.533130     0.007504
AU2762   AU        0.468121    0.875419    0.500562     0.007504
AU2763   AU        0.504124    0.842314    0.501815     0.007504
AU2764   AU        0.501837    0.876949    0.533160     0.007504
AU2765   AU        0.538089    0.840069    0.534703     0.007504
PD2766   PD        0.537460    0.874086    0.499705     0.005394
AU2767   AU        0.569283    0.837490    0.499453     0.007504
PD2768   PD        0.570269    0.876185    0.529879     0.005394
AU2769   AU        0.601148    0.840332    0.534891     0.007504
PD2770   PD        0.629117    0.911967    0.503907     0.005394
PD2771   PD        0.631476    0.838508    0.499422     0.005394
PD2772   PD        0.437914    0.912642    0.498194     0.005394
PD2773   PD        0.322110    0.057897    0.575339     0.005394
PD2774   PD        0.334482    0.095651    0.561441     0.005394
PD2775   PD        0.403758    0.097400    0.564307     0.005394
PD2776   PD        0.431558    0.053870    0.627949     0.005394
PD2777   PD        0.472395    0.097618    0.565871     0.005394
PD2778   PD        0.484569    0.085806    0.621152     0.005394
PD2779   PD        0.537657    0.096399    0.566828     0.005394
PD2780   PD        0.206552    0.161453    0.564425     0.005394
PD2781   PD        0.239917    0.168564    0.598137     0.005394
PD2782   PD        0.235159    0.132590    0.625333     0.005394
PD2783   PD        0.271862    0.166865    0.563995     0.005394
PD2784   PD        0.301412    0.128229    0.566052     0.005394
PD2785   PD        0.303123    0.168816    0.596421     0.005394
PD2786   PD        0.338355    0.125889    0.596797     0.005394
AU2787   AU        0.336046    0.165741    0.564700     0.007504
PD2788   PD        0.369531    0.132649    0.563224     0.005394
PD2789   PD        0.370077    0.167226    0.595858     0.005394
PD2790   PD        0.403056    0.135034    0.597508     0.005394
PD2791   PD        0.404805    0.165140    0.566507     0.005394
PD2792   PD        0.436628    0.129134    0.561449     0.005394
AU2793   AU        0.438565    0.169154    0.597912     0.007504
PD2794   PD        0.470490    0.130335    0.595733     0.005394
PD2795   PD        0.470701    0.164617    0.566562     0.005394
AU2796   AU        0.504714    0.131623    0.563776     0.007504
PD2797   PD        0.505619    0.168312    0.596960     0.005394
PD2798   PD        0.535342    0.134099    0.595622     0.005394
AU2799   AU        0.539363    0.169046    0.563192     0.007504
AU2800   AU        0.570148    0.130500    0.564915     0.007504
AU2801   AU        0.570144    0.167099    0.597830     0.007504
PD2802   PD        0.671462    0.091622    0.632281     0.005394
PD2803   PD        0.602114    0.164344    0.564674     0.005394
PD2804   PD        0.635814    0.160769    0.598714     0.005394
PD2805   PD        0.666829    0.168567    0.565574     0.005394
AU2806   AU        0.135157    0.237626    0.562253     0.007504
PD2807   PD        0.174450    0.198950    0.561225     0.005394
PD2808   PD        0.169702    0.235675    0.593951     0.005394
PD2809   PD        0.203626    0.202348    0.596888     0.005394
PD2810   PD        0.206407    0.235949    0.562677     0.005394
PD2811   PD        0.238151    0.200637    0.562421     0.005394
PD2812   PD        0.236373    0.235225    0.594087     0.005394
AU2813   AU        0.268450    0.202111    0.597915     0.007504
PD2814   PD        0.271453    0.236798    0.566178     0.005394
AU2815   AU        0.303952    0.202143    0.564712     0.007504
PD2816   PD        0.303452    0.238188    0.599161     0.005394
PD2817   PD        0.334948    0.203879    0.596808     0.005394
PD2818   PD        0.338006    0.237621    0.562551     0.005394
PD2819   PD        0.368937    0.202317    0.563751     0.005394
PD2820   PD        0.367278    0.234830    0.601009     0.005394
PD2821   PD        0.402970    0.203243    0.601466     0.005394
PD2822   PD        0.403822    0.236391    0.565814     0.005394
PD2823   PD        0.438432    0.200466    0.563136     0.005394
AU2824   AU        0.436838    0.235128    0.599357     0.007504
PD2825   PD        0.469228    0.203200    0.599135     0.005394
PD2826   PD        0.472550    0.237770    0.567525     0.005394
PD2827   PD        0.501047    0.200224    0.565491     0.005394
PD2828   PD        0.502020    0.237956    0.598901     0.005394
PD2829   PD        0.536577    0.198204    0.595535     0.005394
PD2830   PD        0.539296    0.239907    0.565586     0.005394
AU2831   AU        0.572489    0.202974    0.564689     0.007504
AU2832   AU        0.570419    0.233250    0.600065     0.007504
PD2833   PD        0.602730    0.198144    0.598930     0.005394
PD2834   PD        0.605064    0.238088    0.564987     0.005394
PD2835   PD        0.633947    0.201096    0.565791     0.005394
AU2836   AU        0.635217    0.235498    0.601459     0.007504
PD2837   PD        0.667651    0.202967    0.596843     0.005394
AU2838   AU        0.668352    0.236305    0.565423     0.007504
AU2839   AU        0.702887    0.199071    0.561900     0.007504
AU2840   AU        0.702143    0.234190    0.597732     0.007504
AU2841   AU        0.733581    0.234975    0.564357     0.007504
PD2842   PD        0.065451    0.246294    0.563555     0.005394
PD2843   PD        0.137309    0.270836    0.595439     0.005394
PD2844   PD        0.138388    0.307457    0.565964     0.005394
AU2845   AU        0.174206    0.273328    0.564955     0.007504
AU2846   AU        0.173487    0.306253    0.598635     0.007504
PD2847   PD        0.205936    0.270836    0.598734     0.005394
AU2848   AU        0.206060    0.308358    0.564246     0.007504
PD2849   PD        0.235974    0.272856    0.567081     0.005394
AU2850   AU        0.238302    0.308556    0.600029     0.007504
PD2851   PD        0.268884    0.272767    0.599624     0.005394
AU2852   AU        0.271166    0.307296    0.566561     0.007504
AU2853   AU        0.306866    0.271608    0.565388     0.007504
PD2854   PD        0.301134    0.309780    0.600860     0.005394
AU2855   AU        0.337290    0.270729    0.598503     0.007504
AU2856   AU        0.337807    0.306848    0.563965     0.007504
AU2857   AU        0.370114    0.271550    0.564472     0.007504
PD2858   PD        0.369489    0.308050    0.601372     0.005394
PD2859   PD        0.399159    0.271251    0.598179     0.005394
AU2860   AU        0.402204    0.308170    0.567664     0.007504
PD2861   PD        0.435129    0.272568    0.568159     0.005394
AU2862   AU        0.434028    0.303934    0.599436     0.007504
PD2863   PD        0.472675    0.274219    0.600508     0.005394
PD2864   PD        0.469042    0.306154    0.566320     0.005394
AU2865   AU        0.504047    0.273532    0.565317     0.007504
AU2866   AU        0.507127    0.306306    0.598481     0.007504
PD2867   PD        0.538695    0.270306    0.598248     0.005394
PD2868   PD        0.538952    0.308551    0.565694     0.005394
PD2869   PD        0.571591    0.270084    0.566265     0.005394
AU2870   AU        0.570027    0.307838    0.599407     0.007504
AU2871   AU        0.603987    0.272679    0.598096     0.007504
PD2872   PD        0.603417    0.308303    0.566880     0.005394
PD2873   PD        0.637859    0.272467    0.567894     0.005394
AU2874   AU        0.637120    0.305951    0.600697     0.007504
AU2875   AU        0.669399    0.269841    0.600214     0.007504
PD2876   PD        0.668111    0.307326    0.568753     0.005394
PD2877   PD        0.699810    0.271996    0.564312     0.005394
AU2878   AU        0.702005    0.306399    0.599978     0.007504
PD2879   PD        0.733891    0.270237    0.596792     0.005394
PD2880   PD        0.733344    0.304938    0.566695     0.005394
PD2881   PD        0.767423    0.306801    0.600467     0.005394
PD2882   PD        0.072957    0.378100    0.563498     0.005394
PD2883   PD        0.104380    0.343639    0.564984     0.005394
PD2884   PD        0.074691    0.345249    0.599205     0.005394
AU2885   AU        0.139300    0.343008    0.597017     0.007504
PD2886   PD        0.137934    0.376024    0.565417     0.005394
PD2887   PD        0.171334    0.342668    0.562843     0.005394
PD2888   PD        0.171496    0.380912    0.601017     0.005394
PD2889   PD        0.204490    0.341259    0.599841     0.005394
AU2890   AU        0.204526    0.377851    0.566148     0.007504
PD2891   PD        0.239023    0.343935    0.566492     0.005394
AU2892   AU        0.235172    0.377630    0.599300     0.007504
AU2893   AU        0.269411    0.342603    0.600281     0.007504
PD2894   PD        0.270543    0.379649    0.566320     0.005394
AU2895   AU        0.305062    0.341913    0.564498     0.007504
PD2896   PD        0.302244    0.376575    0.601316     0.005394
PD2897   PD        0.335196    0.341785    0.601317     0.005394
AU2898   AU        0.335504    0.379935    0.566865     0.007504
AU2899   AU        0.368972    0.344203    0.564330     0.007504
AU2900   AU        0.368063    0.377685    0.599911     0.007504
AU2901   AU        0.402794    0.341824    0.600312     0.007504
PD2902   PD        0.400202    0.377611    0.569058     0.005394
PD2903   PD        0.435934    0.343408    0.566625     0.005394
AU2904   AU        0.438721    0.377267    0.600147     0.007504
AU2905   AU        0.470136    0.338430    0.598976     0.007504
AU2906   AU        0.470527    0.374769    0.565270     0.007504
PD2907   PD        0.505199    0.341479    0.565689     0.005394
PD2908   PD        0.504696    0.378091    0.597446     0.005394
PD2909   PD        0.539687    0.341763    0.599357     0.005394
PD2910   PD        0.538042    0.378189    0.565814     0.005394
PD2911   PD        0.570883    0.342681    0.563817     0.005394
AU2912   AU        0.569485    0.378612    0.599081     0.007504
AU2913   AU        0.604619    0.342594    0.601350     0.007504
AU2914   AU        0.602595    0.379106    0.566837     0.007504
PD2915   PD        0.635546    0.343389    0.567359     0.005394
PD2916   PD        0.637313    0.379287    0.601884     0.005394
AU2917   AU        0.670802    0.343366    0.599137     0.007504
PD2918   PD        0.670332    0.380836    0.565596     0.005394
AU2919   AU        0.703088    0.341335    0.566941     0.007504
PD2920   PD        0.704364    0.377544    0.599105     0.005394
AU2921   AU        0.734930    0.343067    0.598946     0.007504
AU2922   AU        0.737219    0.377323    0.565526     0.007504
AU2923   AU        0.767866    0.341341    0.564016     0.007504
PD2924   PD        0.833034    0.375639    0.597861     0.005394
PD2925   PD        0.799612    0.373923    0.565464     0.005394
PD2926   PD        0.072425    0.411274    0.598675     0.005394
PD2927   PD        0.073343    0.447691    0.566111     0.005394
AU2928   AU        0.104132    0.411623    0.564785     0.007504
AU2929   AU        0.106228    0.449884    0.596173     0.007504
AU2930   AU        0.137024    0.413103    0.597730     0.007504
PD2931   PD        0.139526    0.449510    0.564800     0.005394
PD2932   PD        0.170793    0.415653    0.567359     0.005394
AU2933   AU        0.172064    0.450777    0.599365     0.007504
AU2934   AU        0.206650    0.415903    0.600470     0.007504
PD2935   PD        0.205089    0.450134    0.563814     0.005394
PD2936   PD        0.236354    0.415075    0.566428     0.005394
AU2937   AU        0.235729    0.452305    0.599898     0.007504
PD2938   PD        0.267929    0.415168    0.598727     0.005394
AU2939   AU        0.270127    0.451660    0.564558     0.007504
AU2940   AU        0.302421    0.417200    0.567283     0.007504
AU2941   AU        0.303561    0.451411    0.598398     0.007504
PD2942   PD        0.336335    0.416002    0.598924     0.005394
AU2943   AU        0.337110    0.450677    0.564921     0.007504
AU2944   AU        0.370942    0.414708    0.566584     0.007504
AU2945   AU        0.370573    0.448642    0.597695     0.007504
PD2946   PD        0.406011    0.414540    0.599078     0.005394
PD2947   PD        0.402442    0.449281    0.564943     0.005394
AU2948   AU        0.435203    0.412042    0.563510     0.007504
AU2949   AU        0.437357    0.451010    0.598483     0.007504
PD2950   PD        0.472178    0.415733    0.597304     0.005394
PD2951   PD        0.470238    0.448361    0.565481     0.005394
PD2952   PD        0.504785    0.415102    0.564952     0.005394
PD2953   PD        0.504029    0.453024    0.597724     0.005394
AU2954   AU        0.539587    0.415606    0.598139     0.007504
AU2955   AU        0.536921    0.448579    0.564905     0.007504
AU2956   AU        0.570392    0.411391    0.566035     0.007504
PD2957   PD        0.569832    0.450688    0.598097     0.005394
AU2958   AU        0.605688    0.413645    0.601465     0.007504
PD2959   PD        0.602806    0.447243    0.565286     0.005394
AU2960   AU        0.637241    0.412865    0.565236     0.007504
AU2961   AU        0.638134    0.451817    0.601661     0.007504
PD2962   PD        0.669526    0.414356    0.599581     0.005394
PD2963   PD        0.668902    0.446844    0.565063     0.005394
PD2964   PD        0.702144    0.412314    0.564485     0.005394
AU2965   AU        0.704130    0.448805    0.598220     0.007504
PD2966   PD        0.738993    0.413025    0.597657     0.005394
AU2967   AU        0.735823    0.448229    0.565617     0.007504
AU2968   AU        0.769341    0.412919    0.563905     0.007504
PD2969   PD        0.774082    0.446988    0.597007     0.005394
PD2970   PD        0.800709    0.407760    0.598424     0.005394
PD2971   PD        0.803300    0.484437    0.598116     0.005394
PD2972   PD        0.048482    0.446417    0.621917     0.005394
PD2973   PD        0.075572    0.519358    0.563382     0.005394
PD2974   PD        0.107437    0.486316    0.566040     0.005394
PD2975   PD        0.103130    0.519870    0.597384     0.005394
AU2976   AU        0.138997    0.487574    0.599153     0.007504
AU2977   AU        0.140320    0.520890    0.567024     0.007504
AU2978   AU        0.173306    0.485774    0.566623     0.007504
PD2979   PD        0.173149    0.522537    0.596861     0.005394
PD2980   PD        0.205388    0.488808    0.598487     0.005394
PD2981   PD        0.203392    0.522916    0.564738     0.005394
AU2982   AU        0.237472    0.486905    0.564829     0.007504
PD2983   PD        0.239685    0.521184    0.599436     0.005394
AU2984   AU        0.269709    0.486347    0.600064     0.007504
AU2985   AU        0.272339    0.520424    0.564786     0.007504
AU2986   AU        0.303440    0.485915    0.565372     0.007504
AU2987   AU        0.304406    0.519550    0.601021     0.007504
AU2988   AU        0.336391    0.483924    0.598620     0.007504
AU2989   AU        0.338701    0.517848    0.565543     0.007504
AU2990   AU        0.371007    0.484131    0.565837     0.007504
AU2991   AU        0.372963    0.521671    0.599639     0.007504
AU2992   AU        0.403044    0.484442    0.599577     0.007504
AU2993   AU        0.404192    0.519656    0.566983     0.007504
PD2994   PD        0.436788    0.485096    0.567511     0.005394
AU2995   AU        0.434876    0.521159    0.600199     0.007504
AU2996   AU        0.469730    0.486215    0.599897     0.007504
AU2997   AU        0.469300    0.522221    0.567820     0.007504
PD2998   PD        0.500725    0.483968    0.564944     0.005394
PD2999   PD        0.501135    0.520846    0.599914     0.005394
AU3000   AU        0.537694    0.486531    0.598796     0.007504
PD3001   PD        0.536666    0.521449    0.567031     0.005394
AU3002   AU        0.571490    0.484750    0.566128     0.007504
AU3003   AU        0.571149    0.522053    0.601247     0.007504
AU3004   AU        0.602800    0.485272    0.599179     0.007504
AU3005   AU        0.605107    0.521990    0.565830     0.007504
AU3006   AU        0.636386    0.483486    0.567129     0.007504
AU3007   AU        0.636493    0.519680    0.600382     0.007504
AU3008   AU        0.670762    0.486632    0.600442     0.007504
PD3009   PD        0.669582    0.522006    0.566663     0.005394
AU3010   AU        0.702626    0.483129    0.565063     0.007504
PD3011   PD        0.701808    0.518706    0.599605     0.005394
PD3012   PD        0.736826    0.483649    0.600350     0.005394
AU3013   AU        0.734478    0.520115    0.567700     0.007504
AU3014   AU        0.769261    0.484233    0.566992     0.007504
AU3015   AU        0.768532    0.520261    0.597977     0.007504
PD3016   PD        0.835328    0.518014    0.602032     0.005394
AU3017   AU        0.801005    0.520698    0.565881     0.007504
PD3018   PD        0.038182    0.560820    0.569821     0.005394
AU3019   AU        0.073490    0.591797    0.567285     0.007504
PD3020   PD        0.108630    0.554369    0.567231     0.005394
AU3021   AU        0.106229    0.592076    0.597987     0.007504
PD3022   PD        0.139254    0.556260    0.600438     0.005394
PD3023   PD        0.141245    0.594208    0.569613     0.005394
PD3024   PD        0.171869    0.558610    0.567902     0.005394
PD3025   PD        0.170850    0.591094    0.600880     0.005394
PD3026   PD        0.207605    0.558118    0.601108     0.005394
AU3027   AU        0.203082    0.594257    0.566315     0.007504
PD3028   PD        0.237155    0.555404    0.567979     0.005394
AU3029   AU        0.239511    0.591613    0.599201     0.007504
AU3030   AU        0.269436    0.555557    0.600431     0.007504
PD3031   PD        0.270557    0.590776    0.569083     0.005394
AU3032   AU        0.305544    0.552776    0.567762     0.007504
PD3033   PD        0.305100    0.593388    0.601471     0.005394
PD3034   PD        0.336174    0.555058    0.599516     0.005394
AU3035   AU        0.336336    0.590215    0.567771     0.007504
AU3036   AU        0.369252    0.557928    0.565906     0.007504
PD3037   PD        0.368724    0.595367    0.597704     0.005394
PD3038   PD        0.404442    0.559464    0.600366     0.005394
PD3039   PD        0.403669    0.592615    0.567274     0.005394
AU3040   AU        0.434892    0.557707    0.565597     0.007504
AU3041   AU        0.437643    0.591266    0.599968     0.007504
AU3042   AU        0.470844    0.556671    0.602320     0.007504
AU3043   AU        0.468188    0.592298    0.566317     0.007504
PD3044   PD        0.502302    0.559031    0.567038     0.005394
AU3045   AU        0.504772    0.591027    0.599356     0.007504
AU3046   AU        0.537689    0.555730    0.599239     0.007504
AU3047   AU        0.537995    0.590970    0.567481     0.007504
AU3048   AU        0.570678    0.556132    0.566597     0.007504
AU3049   AU        0.570705    0.591742    0.601081     0.007504
AU3050   AU        0.602622    0.556283    0.600712     0.007504
PD3051   PD        0.603246    0.591361    0.566094     0.005394
PD3052   PD        0.638708    0.557621    0.566074     0.005394
AU3053   AU        0.637029    0.591030    0.598987     0.007504
AU3054   AU        0.671072    0.554510    0.599164     0.007504
PD3055   PD        0.668519    0.591086    0.568145     0.005394
PD3056   PD        0.702448    0.557818    0.569061     0.005394
PD3057   PD        0.703625    0.592251    0.600462     0.005394
AU3058   AU        0.733535    0.555434    0.599632     0.007504
PD3059   PD        0.735026    0.591552    0.564490     0.005394
AU3060   AU        0.765626    0.556437    0.566565     0.007504
AU3061   AU        0.769002    0.591173    0.595819     0.007504
PD3062   PD        0.805238    0.593098    0.625909     0.005394
PD3063   PD        0.803428    0.586853    0.566910     0.005394
AU3064   AU        0.108548    0.628567    0.565174     0.007504
PD3065   PD        0.105794    0.663455    0.596237     0.005394
AU3066   AU        0.138255    0.630337    0.601181     0.007504
AU3067   AU        0.138344    0.664921    0.565936     0.007504
PD3068   PD        0.171823    0.630822    0.567021     0.005394
AU3069   AU        0.171398    0.663948    0.599199     0.007504
PD3070   PD        0.203064    0.629566    0.600432     0.005394
AU3071   AU        0.204225    0.663159    0.567336     0.007504
AU3072   AU        0.235947    0.629151    0.568176     0.007504
PD3073   PD        0.236606    0.667538    0.600927     0.005394
PD3074   PD        0.268599    0.629125    0.600698     0.005394
AU3075   AU        0.268739    0.663551    0.570240     0.007504
AU3076   AU        0.303431    0.629764    0.566106     0.007504
PD3077   PD        0.302660    0.661854    0.601354     0.005394
PD3078   PD        0.335424    0.628913    0.597630     0.005394
PD3079   PD        0.334698    0.662686    0.565811     0.005394
PD3080   PD        0.368414    0.628798    0.566576     0.005394
PD3081   PD        0.367521    0.664667    0.597273     0.005394
AU3082   AU        0.403660    0.627240    0.601024     0.007504
AU3083   AU        0.403602    0.664485    0.567245     0.007504
AU3084   AU        0.435969    0.628700    0.567307     0.007504
AU3085   AU        0.436821    0.662393    0.601494     0.007504
AU3086   AU        0.470247    0.626628    0.601887     0.007504
PD3087   PD        0.469570    0.661712    0.567857     0.005394
AU3088   AU        0.503675    0.627911    0.568930     0.007504
PD3089   PD        0.503680    0.662079    0.602055     0.005394
AU3090   AU        0.536987    0.627848    0.600425     0.007504
AU3091   AU        0.535604    0.664672    0.569599     0.007504
AU3092   AU        0.568042    0.627588    0.567653     0.007504
AU3093   AU        0.569487    0.663396    0.602829     0.007504
AU3094   AU        0.604955    0.628414    0.599366     0.007504
PD3095   PD        0.601288    0.663776    0.570057     0.005394
PD3096   PD        0.635879    0.625680    0.565913     0.005394
AU3097   AU        0.634563    0.664928    0.598425     0.007504
PD3098   PD        0.669763    0.629971    0.601068     0.005394
AU3099   AU        0.669631    0.661925    0.568001     0.007504
PD3100   PD        0.702270    0.625955    0.566273     0.005394
PD3101   PD        0.703882    0.663534    0.600429     0.005394
PD3102   PD        0.738355    0.626280    0.595937     0.005394
PD3103   PD        0.735417    0.663558    0.563614     0.005394
PD3104   PD        0.767510    0.626857    0.561967     0.005394
PD3105   PD        0.769085    0.667799    0.604770     0.005394
PD3106   PD        0.137872    0.697703    0.599430     0.005394
PD3107   PD        0.138388    0.735125    0.570294     0.005394
AU3108   AU        0.169677    0.697980    0.566593     0.007504
PD3109   PD        0.170939    0.734813    0.599538     0.005394
AU3110   AU        0.204978    0.697671    0.598636     0.007504
AU3111   AU        0.202324    0.733435    0.565223     0.007504
AU3112   AU        0.237820    0.697893    0.566515     0.007504
AU3113   AU        0.237445    0.735619    0.599858     0.007504
PD3114   PD        0.271857    0.699880    0.598610     0.005394
PD3115   PD        0.271306    0.732426    0.568913     0.005394
PD3116   PD        0.306029    0.697503    0.566823     0.005394
PD3117   PD        0.303262    0.737153    0.599753     0.005394
AU3118   AU        0.335622    0.699410    0.601735     0.007504
AU3119   AU        0.335836    0.736887    0.568094     0.007504
AU3120   AU        0.369928    0.699302    0.568474     0.007504
AU3121   AU        0.369547    0.734920    0.601124     0.007504
AU3122   AU        0.403881    0.698117    0.600747     0.007504
AU3123   AU        0.402551    0.734041    0.567590     0.007504
PD3124   PD        0.435646    0.697929    0.568343     0.005394
AU3125   AU        0.435717    0.735964    0.600176     0.007504
AU3126   AU        0.468620    0.696244    0.600161     0.007504
AU3127   AU        0.468790    0.732551    0.568260     0.007504
AU3128   AU        0.501526    0.699812    0.569630     0.007504
AU3129   AU        0.501762    0.734262    0.601376     0.007504
PD3130   PD        0.535516    0.697932    0.598525     0.005394
PD3131   PD        0.535736    0.733123    0.570234     0.005394
AU3132   AU        0.567492    0.701205    0.567769     0.007504
PD3133   PD        0.569779    0.733180    0.600837     0.005394
AU3134   AU        0.602994    0.699638    0.601708     0.007504
PD3135   PD        0.605895    0.737174    0.565840     0.005394
PD3136   PD        0.636899    0.699593    0.567534     0.005394
PD3137   PD        0.635570    0.734298    0.598016     0.005394
PD3138   PD        0.666459    0.700351    0.601769     0.005394
AU3139   AU        0.669065    0.735029    0.567057     0.007504
PD3140   PD        0.703232    0.698481    0.567671     0.005394
PD3141   PD        0.702526    0.737297    0.599012     0.005394
PD3142   PD        0.734472    0.701483    0.599337     0.005394
PD3143   PD        0.733044    0.734079    0.565637     0.005394
AU3144   AU        0.171617    0.767079    0.565219     0.007504
PD3145   PD        0.205262    0.768298    0.597046     0.005394
PD3146   PD        0.203635    0.804109    0.564589     0.005394
AU3147   AU        0.238237    0.768377    0.565590     0.007504
PD3148   PD        0.235577    0.804487    0.601018     0.005394
PD3149   PD        0.271210    0.769847    0.598719     0.005394
AU3150   AU        0.267201    0.805548    0.565944     0.007504
PD3151   PD        0.302298    0.773527    0.566572     0.005394
PD3152   PD        0.304345    0.806949    0.601170     0.005394
PD3153   PD        0.336981    0.772287    0.600029     0.005394
AU3154   AU        0.334473    0.806225    0.566735     0.007504
AU3155   AU        0.370175    0.771692    0.566005     0.007504
PD3156   PD        0.368683    0.806016    0.599029     0.005394
AU3157   AU        0.403347    0.770540    0.599421     0.007504
PD3158   PD        0.402887    0.806864    0.567101     0.005394
AU3159   AU        0.435868    0.771110    0.566043     0.007504
AU3160   AU        0.437451    0.805270    0.600550     0.007504
AU3161   AU        0.468832    0.770659    0.600578     0.007504
AU3162   AU        0.469762    0.805255    0.567119     0.007504
PD3163   PD        0.502472    0.767327    0.568306     0.005394
AU3164   AU        0.502923    0.804409    0.599723     0.007504
PD3165   PD        0.535306    0.770901    0.600972     0.005394
AU3166   AU        0.535822    0.803796    0.566280     0.007504
PD3167   PD        0.568103    0.768455    0.570040     0.005394
AU3168   AU        0.570459    0.804137    0.600201     0.007504
AU3169   AU        0.602864    0.771166    0.602103     0.007504
AU3170   AU        0.599711    0.803540    0.566860     0.007504
PD3171   PD        0.637289    0.770145    0.569637     0.005394
PD3172   PD        0.634296    0.806914    0.597449     0.005394
PD3173   PD        0.668966    0.767760    0.601664     0.005394
PD3174   PD        0.671128    0.806691    0.568318     0.005394
PD3175   PD        0.703582    0.772568    0.563302     0.005394
PD3176   PD        0.236003    0.879707    0.533611     0.005394
AU3177   AU        0.302536    0.841598    0.566143     0.007504
PD3178   PD        0.336904    0.841764    0.600307     0.005394
PD3179   PD        0.302361    0.841555    0.629923     0.005394
AU3180   AU        0.369752    0.840956    0.567038     0.007504
AU3181   AU        0.370886    0.874873    0.600642     0.007504
AU3182   AU        0.402632    0.838329    0.598685     0.007504
PD3183   PD        0.403086    0.876890    0.568043     0.005394
AU3184   AU        0.436686    0.839709    0.568715     0.007504
PD3185   PD        0.434853    0.874029    0.598802     0.005394
AU3186   AU        0.472646    0.841415    0.598803     0.007504
PD3187   PD        0.468910    0.875630    0.563550     0.005394
AU3188   AU        0.501681    0.840931    0.564426     0.007504
PD3189   PD        0.504045    0.876812    0.598163     0.005394
AU3190   AU        0.535839    0.840186    0.596813     0.007504
PD3191   PD        0.534790    0.872119    0.565700     0.005394
AU3192   AU        0.569883    0.842136    0.566886     0.007504
PD3193   PD        0.601941    0.843083    0.597295     0.005394
PD3194   PD        0.230837    0.161750    0.659944     0.005394
PD3195   PD        0.301559    0.163226    0.666302     0.005394
PD3196   PD        0.336253    0.165684    0.632178     0.005394
PD3197   PD        0.371470    0.132659    0.628133     0.005394
AU3198   AU        0.371667    0.165063    0.663302     0.007504
PD3199   PD        0.354342    0.106822    0.716521     0.005394
PD3200   PD        0.403953    0.172284    0.629306     0.005394
PD3201   PD        0.433436    0.128415    0.630321     0.005394
PD3202   PD        0.438586    0.170619    0.659438     0.005394
PD3203   PD        0.506972    0.098257    0.662050     0.005394
AU3204   AU        0.473862    0.167755    0.629900     0.007504
PD3205   PD        0.506458    0.129308    0.629155     0.005394
PD3206   PD        0.505046    0.169524    0.668210     0.005394
AU3207   AU        0.537986    0.167826    0.633108     0.007504
PD3208   PD        0.583767    0.133877    0.709731     0.005394
PD3209   PD        0.603589    0.166038    0.632025     0.005394
PD3210   PD        0.201232    0.235159    0.626227     0.005394
AU3211   AU        0.234842    0.202249    0.631580     0.007504
AU3212   AU        0.237709    0.235403    0.666480     0.007504
PD3213   PD        0.271232    0.197948    0.663227     0.005394
PD3214   PD        0.269462    0.236551    0.631732     0.005394
AU3215   AU        0.302466    0.201519    0.631247     0.007504
PD3216   PD        0.300803    0.234973    0.666021     0.005394
PD3217   PD        0.337286    0.200341    0.665879     0.005394
AU3218   AU        0.336441    0.236889    0.633316     0.007504
AU3219   AU        0.368234    0.200336    0.631748     0.007504
AU3220   AU        0.368250    0.237707    0.665358     0.007504
PD3221   PD        0.402817    0.202870    0.665359     0.005394
AU3222   AU        0.402299    0.236503    0.632172     0.007504
PD3223   PD        0.437089    0.203051    0.632831     0.005394
PD3224   PD        0.438070    0.237043    0.666660     0.005394
PD3225   PD        0.472590    0.201686    0.664093     0.005394
PD3226   PD        0.469747    0.238336    0.634189     0.005394
PD3227   PD        0.506351    0.202924    0.631485     0.005394
AU3228   AU        0.505784    0.236560    0.665426     0.007504
PD3229   PD        0.539991    0.200814    0.665440     0.005394
AU3230   AU        0.538082    0.236092    0.633706     0.007504
PD3231   PD        0.570526    0.199720    0.631003     0.005394
PD3232   PD        0.571749    0.237585    0.666140     0.005394
PD3233   PD        0.603617    0.203193    0.665887     0.005394
PD3234   PD        0.600749    0.234492    0.632033     0.005394
PD3235   PD        0.636925    0.203992    0.628548     0.005394
PD3236   PD        0.638103    0.236322    0.663865     0.005394
PD3237   PD        0.673084    0.236030    0.632451     0.005394
AU3238   AU        0.136844    0.305699    0.627896     0.007504
PD3239   PD        0.169944    0.274802    0.631932     0.005394
PD3240   PD        0.170214    0.312301    0.663960     0.005394
PD3241   PD        0.204979    0.268637    0.731309     0.005394
PD3242   PD        0.203170    0.307607    0.633188     0.005394
AU3243   AU        0.234514    0.271140    0.631913     0.007504
PD3244   PD        0.233708    0.309391    0.665459     0.005394
PD3245   PD        0.268265    0.271231    0.667470     0.005394
PD3246   PD        0.265637    0.305959    0.635831     0.005394
AU3247   AU        0.302338    0.271147    0.632220     0.007504
PD3248   PD        0.300780    0.303917    0.665140     0.005394
PD3249   PD        0.334665    0.271115    0.666382     0.005394
PD3250   PD        0.335847    0.306784    0.633565     0.005394
PD3251   PD        0.368163    0.270085    0.634813     0.005394
PD3252   PD        0.370543    0.305424    0.667854     0.005394
AU3253   AU        0.404988    0.270953    0.667471     0.007504
AU3254   AU        0.403058    0.305881    0.635056     0.007504
AU3255   AU        0.435025    0.271271    0.633271     0.007504
PD3256   PD        0.438801    0.307022    0.664584     0.005394
PD3257   PD        0.472953    0.271908    0.665634     0.005394
PD3258   PD        0.466326    0.308578    0.635664     0.005394
PD3259   PD        0.505110    0.270882    0.631277     0.005394
PD3260   PD        0.501612    0.308751    0.666887     0.005394
PD3261   PD        0.536857    0.272929    0.662658     0.005394
PD3262   PD        0.538213    0.306956    0.631026     0.005394
AU3263   AU        0.571696    0.271209    0.632714     0.007504
PD3264   PD        0.571601    0.304665    0.666028     0.005394
AU3265   AU        0.603345    0.272248    0.667079     0.007504
PD3266   PD        0.604605    0.306729    0.631979     0.005394
PD3267   PD        0.634268    0.273348    0.631104     0.005394
PD3268   PD        0.636332    0.307824    0.665032     0.005394
PD3269   PD        0.667884    0.272671    0.663825     0.005394
PD3270   PD        0.668438    0.306784    0.632876     0.005394
PD3271   PD        0.703820    0.273311    0.634913     0.005394
AU3272   AU        0.703545    0.310572    0.666808     0.007504
AU3273   AU        0.736370    0.309263    0.633164     0.007504
PD3274   PD        0.132288    0.272778    0.661159     0.005394
PD3275   PD        0.133436    0.378177    0.630064     0.005394
PD3276   PD        0.170327    0.342718    0.630925     0.005394
PD3277   PD        0.168561    0.379698    0.664980     0.005394
AU3278   AU        0.203911    0.343663    0.666494     0.007504
AU3279   AU        0.203524    0.381478    0.633009     0.007504
AU3280   AU        0.236171    0.344338    0.631999     0.007504
PD3281   PD        0.236836    0.377213    0.663324     0.005394
AU3282   AU        0.270101    0.341294    0.665457     0.007504
AU3283   AU        0.270055    0.379654    0.631569     0.007504
AU3284   AU        0.301000    0.341240    0.633326     0.007504
PD3285   PD        0.303843    0.376303    0.665579     0.005394
PD3286   PD        0.338555    0.340368    0.666209     0.005394
PD3287   PD        0.335192    0.379671    0.631711     0.005394
AU3288   AU        0.371528    0.344482    0.631683     0.007504
AU3289   AU        0.369475    0.377517    0.665666     0.007504
AU3290   AU        0.403713    0.343785    0.665682     0.007504
PD3291   PD        0.404465    0.379903    0.633136     0.005394
PD3292   PD        0.437189    0.343150    0.633931     0.005394
AU3293   AU        0.439534    0.382600    0.666613     0.007504
PD3294   PD        0.470456    0.346001    0.664753     0.005394
AU3295   AU        0.472155    0.378567    0.630401     0.007504
PD3296   PD        0.507396    0.343469    0.631836     0.005394
AU3297   AU        0.504099    0.377037    0.665456     0.007504
AU3298   AU        0.537004    0.341463    0.665303     0.007504
AU3299   AU        0.539581    0.377230    0.632687     0.007504
PD3300   PD        0.571689    0.341645    0.635510     0.005394
PD3301   PD        0.571437    0.381721    0.666867     0.005394
AU3302   AU        0.603318    0.342848    0.667196     0.007504
AU3303   AU        0.602464    0.377799    0.633887     0.007504
PD3304   PD        0.636148    0.343207    0.631552     0.005394
PD3305   PD        0.636404    0.376850    0.663603     0.005394
PD3306   PD        0.668127    0.344305    0.665134     0.005394
PD3307   PD        0.670251    0.378708    0.632857     0.005394
AU3308   AU        0.702457    0.342585    0.632041     0.007504
AU3309   AU        0.701135    0.377665    0.666442     0.007504
AU3310   AU        0.738091    0.344948    0.665707     0.007504
AU3311   AU        0.734101    0.377242    0.631431     0.007504
PD3312   PD        0.105342    0.414805    0.635399     0.005394
PD3313   PD        0.107643    0.453637    0.665113     0.005394
PD3314   PD        0.139599    0.415679    0.666272     0.005394
AU3315   AU        0.139585    0.449294    0.630435     0.007504
PD3316   PD        0.171682    0.414982    0.628360     0.005394
PD3317   PD        0.171130    0.450071    0.663552     0.005394
PD3318   PD        0.204474    0.415776    0.667821     0.005394
AU3319   AU        0.203177    0.449980    0.633705     0.007504
AU3320   AU        0.237964    0.415075    0.633778     0.007504
PD3321   PD        0.237679    0.451723    0.666956     0.005394
PD3322   PD        0.270335    0.416042    0.665238     0.005394
PD3323   PD        0.270032    0.450390    0.633706     0.005394
PD3324   PD        0.303425    0.414602    0.632656     0.005394
AU3325   AU        0.306120    0.449538    0.666792     0.007504
AU3326   AU        0.336296    0.415140    0.663394     0.007504
AU3327   AU        0.336710    0.450143    0.633112     0.007504
AU3328   AU        0.370023    0.415024    0.632032     0.007504
AU3329   AU        0.371095    0.450104    0.666991     0.007504
PD3330   PD        0.405750    0.414902    0.666692     0.005394
AU3331   AU        0.402616    0.450372    0.633753     0.007504
PD3332   PD        0.437397    0.415682    0.631146     0.005394
AU3333   AU        0.437863    0.448665    0.663273     0.007504
PD3334   PD        0.472939    0.416933    0.665403     0.005394
AU3335   AU        0.471930    0.449783    0.631582     0.007504
PD3336   PD        0.504846    0.414021    0.632381     0.005394
PD3337   PD        0.505158    0.448866    0.664361     0.005394
PD3338   PD        0.536838    0.412186    0.666532     0.005394
AU3339   AU        0.537326    0.451841    0.632704     0.007504
PD3340   PD        0.570232    0.416523    0.632022     0.005394
PD3341   PD        0.571266    0.449578    0.667712     0.005394
PD3342   PD        0.603608    0.414113    0.666798     0.005394
AU3343   AU        0.602494    0.449384    0.633449     0.007504
PD3344   PD        0.635206    0.413405    0.635067     0.005394
AU3345   AU        0.637628    0.445796    0.664339     0.007504
PD3346   PD        0.671359    0.413328    0.664538     0.005394
PD3347   PD        0.670043    0.448563    0.633905     0.005394
PD3348   PD        0.703342    0.413172    0.632186     0.005394
PD3349   PD        0.705714    0.447469    0.664879     0.005394
AU3350   AU        0.735761    0.410347    0.664814     0.007504
PD3351   PD        0.735941    0.446300    0.632506     0.005394
AU3352   AU        0.767629    0.412065    0.633360     0.007504
PD3353   PD        0.768025    0.450120    0.665573     0.005394
PD3354   PD        0.106511    0.485010    0.629733     0.005394
PD3355   PD        0.107488    0.520891    0.664368     0.005394
PD3356   PD        0.140005    0.487452    0.661697     0.005394
PD3357   PD        0.137922    0.526515    0.628991     0.005394
PD3358   PD        0.173386    0.486723    0.630635     0.005394
PD3359   PD        0.171562    0.522708    0.665583     0.005394
PD3360   PD        0.205959    0.485948    0.667034     0.005394
AU3361   AU        0.204011    0.522094    0.632555     0.007504
PD3362   PD        0.237549    0.482913    0.633342     0.005394
AU3363   AU        0.237260    0.522215    0.666955     0.007504
PD3364   PD        0.272854    0.485767    0.665124     0.005394
PD3365   PD        0.271035    0.520728    0.630845     0.005394
PD3366   PD        0.303658    0.485931    0.634630     0.005394
AU3367   AU        0.301628    0.523149    0.664564     0.007504
PD3368   PD        0.336615    0.487169    0.667907     0.005394
PD3369   PD        0.336029    0.519216    0.633197     0.005394
AU3370   AU        0.367952    0.484402    0.632255     0.007504
PD3371   PD        0.371122    0.522427    0.665247     0.005394
PD3372   PD        0.402065    0.485483    0.667587     0.005394
AU3373   AU        0.404715    0.520969    0.633521     0.007504
AU3374   AU        0.437080    0.486647    0.634337     0.007504
AU3375   AU        0.434527    0.519871    0.666935     0.007504
PD3376   PD        0.470414    0.484786    0.667540     0.005394
AU3377   AU        0.470791    0.522188    0.635289     0.007504
AU3378   AU        0.503500    0.485589    0.633146     0.007504
PD3379   PD        0.504684    0.523004    0.665888     0.005394
PD3380   PD        0.538107    0.485590    0.664723     0.005394
AU3381   AU        0.537085    0.521539    0.632764     0.007504
AU3382   AU        0.570603    0.486283    0.633700     0.007504
AU3383   AU        0.571293    0.522326    0.667333     0.007504
AU3384   AU        0.604842    0.485462    0.666954     0.007504
AU3385   AU        0.604383    0.521194    0.632936     0.007504
AU3386   AU        0.637782    0.485634    0.633277     0.007504
AU3387   AU        0.638312    0.521358    0.666453     0.007504
PD3388   PD        0.670868    0.483352    0.666322     0.005394
AU3389   AU        0.671596    0.521394    0.632741     0.007504
PD3390   PD        0.703388    0.482789    0.633353     0.005394
PD3391   PD        0.701163    0.520322    0.666817     0.005394
PD3392   PD        0.737055    0.484705    0.666725     0.005394
PD3393   PD        0.733457    0.520176    0.633914     0.005394
PD3394   PD        0.766055    0.487354    0.631241     0.005394
PD3395   PD        0.769100    0.523449    0.666192     0.005394
PD3396   PD        0.104799    0.558855    0.634058     0.005394
AU3397   AU        0.139044    0.559431    0.665487     0.007504
AU3398   AU        0.137861    0.593750    0.631684     0.007504
PD3399   PD        0.170245    0.557730    0.632111     0.005394
AU3400   AU        0.173360    0.592642    0.664261     0.007504
AU3401   AU        0.204758    0.558808    0.664820     0.007504
AU3402   AU        0.206616    0.590840    0.630432     0.007504
PD3403   PD        0.238476    0.559882    0.634283     0.005394
PD3404   PD        0.240819    0.590520    0.666570     0.005394
PD3405   PD        0.271835    0.557109    0.666375     0.005394
PD3406   PD        0.269969    0.593406    0.633229     0.005394
PD3407   PD        0.301952    0.557733    0.631724     0.005394
AU3408   AU        0.303496    0.592500    0.665991     0.007504
AU3409   AU        0.335984    0.555919    0.665751     0.007504
AU3410   AU        0.335752    0.590303    0.632331     0.007504
AU3411   AU        0.369889    0.556455    0.631686     0.007504
PD3412   PD        0.369017    0.592393    0.663316     0.005394
AU3413   AU        0.402946    0.556311    0.666506     0.007504
PD3414   PD        0.401491    0.590570    0.634628     0.005394
AU3415   AU        0.438797    0.556951    0.634177     0.007504
PD3416   PD        0.435771    0.594682    0.666171     0.005394
PD3417   PD        0.469806    0.556136    0.666341     0.005394
PD3418   PD        0.470321    0.592887    0.634731     0.005394
AU3419   AU        0.503381    0.557000    0.633475     0.007504
PD3420   PD        0.504393    0.592950    0.668284     0.005394
AU3421   AU        0.537567    0.557493    0.665983     0.007504
PD3422   PD        0.539277    0.590748    0.632098     0.005394
AU3423   AU        0.571239    0.556477    0.634178     0.007504
AU3424   AU        0.570345    0.592295    0.667877     0.007504
PD3425   PD        0.604275    0.555957    0.666480     0.005394
PD3426   PD        0.603217    0.591663    0.634330     0.005394
PD3427   PD        0.637026    0.555230    0.631708     0.005394
AU3428   AU        0.636042    0.595265    0.667698     0.007504
AU3429   AU        0.668036    0.556686    0.666571     0.007504
PD3430   PD        0.670072    0.594138    0.632596     0.005394
PD3431   PD        0.703196    0.555944    0.633183     0.005394
AU3432   AU        0.702427    0.591552    0.665539     0.007504
PD3433   PD        0.734607    0.557936    0.668669     0.005394
PD3434   PD        0.806958    0.624574    0.666299     0.005394
PD3435   PD        0.770837    0.562028    0.632273     0.005394
PD3436   PD        0.134155    0.658529    0.692486     0.005394
PD3437   PD        0.089847    0.662015    0.658728     0.005394
PD3438   PD        0.174940    0.628456    0.632941     0.005394
PD3439   PD        0.171822    0.662046    0.665560     0.005394
AU3440   AU        0.205273    0.628438    0.667255     0.007504
PD3441   PD        0.205723    0.664723    0.633782     0.005394
AU3442   AU        0.238284    0.629864    0.632213     0.007504
PD3443   PD        0.237169    0.664483    0.665258     0.005394
AU3444   AU        0.270198    0.627904    0.665857     0.007504
PD3445   PD        0.272061    0.664374    0.632167     0.005394
AU3446   AU        0.304203    0.628772    0.635220     0.007504
PD3447   PD        0.302223    0.663693    0.666245     0.005394
PD3448   PD        0.338625    0.631847    0.666080     0.005394
AU3449   AU        0.335662    0.663389    0.633156     0.007504
AU3450   AU        0.369568    0.628991    0.633249     0.007504
AU3451   AU        0.372385    0.663627    0.665741     0.007504
AU3452   AU        0.403214    0.628153    0.665676     0.007504
AU3453   AU        0.403725    0.663459    0.633782     0.007504
PD3454   PD        0.437606    0.625813    0.630366     0.005394
PD3455   PD        0.437093    0.664174    0.665696     0.005394
AU3456   AU        0.471563    0.628437    0.667434     0.007504
AU3457   AU        0.470454    0.662567    0.633174     0.007504
AU3458   AU        0.504410    0.625846    0.634604     0.007504
AU3459   AU        0.501271    0.663293    0.666856     0.007504
PD3460   PD        0.534884    0.627677    0.669144     0.005394
PD3461   PD        0.535092    0.662189    0.632555     0.005394
PD3462   PD        0.572657    0.626130    0.634272     0.005394
PD3463   PD        0.567294    0.664681    0.664668     0.005394
AU3464   AU        0.600895    0.629817    0.667749     0.007504
PD3465   PD        0.602033    0.663532    0.633271     0.005394
AU3466   AU        0.636302    0.627419    0.631889     0.007504
PD3467   PD        0.638227    0.660726    0.667086     0.005394
AU3468   AU        0.671165    0.628229    0.665234     0.007504
AU3469   AU        0.669264    0.665637    0.632735     0.007504
AU3470   AU        0.702957    0.630047    0.631924     0.007504
PD3471   PD        0.738240    0.659583    0.697959     0.005394
PD3472   PD        0.735542    0.623727    0.667282     0.005394
PD3473   PD        0.739814    0.661387    0.634323     0.005394
AU3474   AU        0.170426    0.698362    0.632272     0.007504
AU3475   AU        0.204094    0.699455    0.664283     0.007504
PD3476   PD        0.205034    0.736152    0.631166     0.005394
AU3477   AU        0.237820    0.699367    0.630112     0.007504
PD3478   PD        0.237331    0.734465    0.663363     0.005394
AU3479   AU        0.270628    0.697835    0.665170     0.007504
AU3480   AU        0.270453    0.735026    0.633157     0.007504
AU3481   AU        0.303543    0.696921    0.631931     0.007504
AU3482   AU        0.305606    0.734829    0.665216     0.007504
AU3483   AU        0.337853    0.698509    0.666755     0.007504
AU3484   AU        0.335785    0.735362    0.632214     0.007504
AU3485   AU        0.370326    0.700376    0.632287     0.007504
PD3486   PD        0.369057    0.732996    0.667704     0.005394
AU3487   AU        0.403847    0.698374    0.665993     0.007504
PD3488   PD        0.401541    0.735786    0.633304     0.005394
PD3489   PD        0.436557    0.698785    0.635544     0.005394
PD3490   PD        0.435490    0.733084    0.665301     0.005394
PD3491   PD        0.469297    0.700566    0.664327     0.005394
AU3492   AU        0.468984    0.734231    0.631884     0.007504
AU3493   AU        0.502421    0.698458    0.632391     0.007504
PD3494   PD        0.500990    0.732604    0.665740     0.005394
PD3495   PD        0.537150    0.699906    0.666429     0.005394
PD3496   PD        0.535936    0.734818    0.634033     0.005394
PD3497   PD        0.570131    0.698777    0.633383     0.005394
PD3498   PD        0.570458    0.736766    0.666653     0.005394
PD3499   PD        0.602776    0.698802    0.665656     0.005394
AU3500   AU        0.603495    0.734459    0.634197     0.007504
PD3501   PD        0.634973    0.700221    0.633652     0.005394
AU3502   AU        0.635654    0.735404    0.667070     0.007504
PD3503   PD        0.670970    0.697128    0.666376     0.005394
PD3504   PD        0.699721    0.738679    0.666608     0.005394
PD3505   PD        0.704778    0.696971    0.633439     0.005394
AU3506   AU        0.237052    0.770844    0.631566     0.007504
AU3507   AU        0.270710    0.767980    0.667121     0.007504
PD3508   PD        0.238475    0.871793    0.598145     0.005394
AU3509   AU        0.302974    0.771278    0.633523     0.007504
PD3510   PD        0.303181    0.804650    0.664789     0.005394
AU3511   AU        0.336739    0.769529    0.664402     0.007504
AU3512   AU        0.337650    0.807143    0.631657     0.007504
PD3513   PD        0.370127    0.772879    0.632302     0.005394
AU3514   AU        0.370680    0.807202    0.665174     0.007504
AU3515   AU        0.401199    0.768476    0.665664     0.007504
PD3516   PD        0.403324    0.805174    0.630879     0.005394
PD3517   PD        0.434168    0.770986    0.633496     0.005394
AU3518   AU        0.437527    0.803061    0.665044     0.007504
AU3519   AU        0.470233    0.768711    0.664675     0.007504
PD3520   PD        0.471849    0.805255    0.632282     0.005394
PD3521   PD        0.503106    0.771144    0.635203     0.005394
PD3522   PD        0.533969    0.839770    0.667574     0.005394
AU3523   AU        0.536065    0.772528    0.667823     0.007504
AU3524   AU        0.538626    0.806008    0.633399     0.007504
PD3525   PD        0.569348    0.768985    0.635140     0.005394
PD3526   PD        0.570029    0.804393    0.664963     0.005394
AU3527   AU        0.602350    0.770867    0.667229     0.007504
PD3528   PD        0.599436    0.805951    0.634492     0.005394
AU3529   AU        0.634724    0.770066    0.634793     0.007504
PD3530   PD        0.335022    0.875578    0.634345     0.005394
PD3531   PD        0.404429    0.843577    0.663710     0.005394
PD3532   PD        0.440626    0.841722    0.632263     0.005394
PD3533   PD        0.467956    0.838952    0.668778     0.005394
PD3534   PD        0.502498    0.840354    0.632998     0.005394
PD3535   PD        0.379248    0.133196    0.698915     0.005394
AU3536   AU        0.463831    0.161149    0.699327     0.007504
PD3537   PD        0.272795    0.236286    0.699657     0.005394
PD3538   PD        0.302939    0.199169    0.696775     0.005394
PD3539   PD        0.265331    0.241234    0.768054     0.005394
PD3540   PD        0.333120    0.237904    0.699992     0.005394
PD3541   PD        0.336831    0.206786    0.727122     0.005394
PD3542   PD        0.371463    0.239594    0.732525     0.005394
PD3543   PD        0.390637    0.186753    0.720334     0.005394
PD3544   PD        0.403301    0.234160    0.699845     0.005394
PD3545   PD        0.437290    0.200876    0.695779     0.005394
PD3546   PD        0.435695    0.234122    0.731413     0.005394
PD3547   PD        0.499032    0.164187    0.730267     0.005394
PD3548   PD        0.471303    0.234595    0.700619     0.005394
PD3549   PD        0.506140    0.201207    0.700711     0.005394
PD3550   PD        0.502252    0.239636    0.733328     0.005394
AU3551   AU        0.536155    0.238494    0.699967     0.007504
PD3552   PD        0.570233    0.201402    0.701003     0.005394
PD3553   PD        0.571931    0.237008    0.731528     0.005394
PD3554   PD        0.603398    0.235093    0.696997     0.005394
PD3555   PD        0.202328    0.307481    0.697068     0.005394
AU3556   AU        0.235574    0.269834    0.698480     0.007504
AU3557   AU        0.236539    0.309965    0.733063     0.007504
AU3558   AU        0.268853    0.273611    0.731749     0.007504
AU3559   AU        0.267389    0.306605    0.697963     0.007504
PD3560   PD        0.301949    0.273250    0.698130     0.005394
AU3561   AU        0.299586    0.309601    0.732510     0.007504
PD3562   PD        0.334967    0.274409    0.733179     0.005394
PD3563   PD        0.340078    0.306682    0.699654     0.005394
AU3564   AU        0.371865    0.270757    0.699296     0.007504
PD3565   PD        0.370583    0.307915    0.729172     0.005394
AU3566   AU        0.405640    0.272282    0.730216     0.007504
AU3567   AU        0.404688    0.308009    0.698596     0.007504
AU3568   AU        0.437473    0.271982    0.699710     0.007504
AU3569   AU        0.437402    0.308943    0.732051     0.007504
PD3570   PD        0.471280    0.273723    0.733390     0.005394
AU3571   AU        0.470446    0.308588    0.697973     0.007504
AU3572   AU        0.503700    0.272583    0.699187     0.007504
AU3573   AU        0.502327    0.306401    0.731822     0.007504
AU3574   AU        0.537786    0.274930    0.732286     0.007504
PD3575   PD        0.535728    0.306807    0.697973     0.005394
AU3576   AU        0.569250    0.271745    0.700099     0.007504
PD3577   PD        0.568531    0.309483    0.730493     0.005394
PD3578   PD        0.602291    0.274691    0.731896     0.005394
AU3579   AU        0.603906    0.307640    0.697396     0.007504
AU3580   AU        0.637151    0.273509    0.698001     0.007504
AU3581   AU        0.637424    0.307201    0.733942     0.007504
AU3582   AU        0.670833    0.307681    0.698502     0.007504
PD3583   PD        0.167817    0.343493    0.698150     0.005394
PD3584   PD        0.202244    0.379076    0.761967     0.005394
AU3585   AU        0.205245    0.380359    0.700263     0.007504
PD3586   PD        0.235036    0.345142    0.697672     0.005394
AU3587   AU        0.237229    0.379969    0.731626     0.007504
PD3588   PD        0.269648    0.343349    0.732969     0.005394
PD3589   PD        0.271432    0.381147    0.696764     0.005394
PD3590   PD        0.302490    0.341563    0.697833     0.005394
AU3591   AU        0.303084    0.378410    0.730071     0.007504
PD3592   PD        0.335722    0.344493    0.731245     0.005394
PD3593   PD        0.335426    0.379349    0.697311     0.005394
PD3594   PD        0.368843    0.342778    0.698788     0.005394
PD3595   PD        0.369902    0.382064    0.734171     0.005394
PD3596   PD        0.405386    0.346736    0.731139     0.005394
PD3597   PD        0.402850    0.379237    0.698433     0.005394
PD3598   PD        0.436574    0.343922    0.699558     0.005394
PD3599   PD        0.439039    0.378670    0.729151     0.005394
AU3600   AU        0.470489    0.343552    0.730290     0.007504
AU3601   AU        0.471557    0.377676    0.697709     0.007504
AU3602   AU        0.505178    0.341934    0.699515     0.007504
AU3603   AU        0.503174    0.378319    0.730556     0.007504
PD3604   PD        0.536228    0.340835    0.732872     0.005394
AU3605   AU        0.537358    0.377196    0.698293     0.007504
PD3606   PD        0.569048    0.343306    0.698471     0.005394
PD3607   PD        0.572070    0.379033    0.731804     0.005394
AU3608   AU        0.605072    0.344378    0.730782     0.007504
PD3609   PD        0.604650    0.378717    0.697071     0.005394
PD3610   PD        0.636325    0.344910    0.699757     0.005394
AU3611   AU        0.635715    0.379466    0.732206     0.007504
AU3612   AU        0.669410    0.341818    0.732204     0.007504
AU3613   AU        0.668457    0.378895    0.698535     0.007504
PD3614   PD        0.700685    0.343449    0.698016     0.005394
PD3615   PD        0.137847    0.454154    0.696301     0.005394
PD3616   PD        0.172926    0.419465    0.698864     0.005394
PD3617   PD        0.171339    0.452170    0.731125     0.005394
AU3618   AU        0.205187    0.416684    0.732065     0.007504
PD3619   PD        0.206665    0.450164    0.699530     0.005394
AU3620   AU        0.238228    0.415744    0.696983     0.007504
AU3621   AU        0.239629    0.448581    0.732393     0.007504
PD3622   PD        0.273510    0.413677    0.732907     0.005394
AU3623   AU        0.271108    0.450080    0.698272     0.007504
PD3624   PD        0.302307    0.416055    0.697367     0.005394
AU3625   AU        0.302788    0.448947    0.732214     0.007504
PD3626   PD        0.336055    0.413568    0.728651     0.005394
PD3627   PD        0.338411    0.452526    0.700958     0.005394
PD3628   PD        0.369087    0.414453    0.698364     0.005394
PD3629   PD        0.371587    0.449882    0.732039     0.005394
AU3630   AU        0.403801    0.414575    0.731520     0.007504
PD3631   PD        0.402697    0.450979    0.697925     0.005394
PD3632   PD        0.437442    0.417185    0.701438     0.005394
PD3633   PD        0.437055    0.450628    0.731149     0.005394
PD3634   PD        0.469289    0.415321    0.731882     0.005394
PD3635   PD        0.472797    0.449357    0.700017     0.005394
AU3636   AU        0.503985    0.413776    0.700580     0.007504
AU3637   AU        0.506875    0.452111    0.732396     0.007504
PD3638   PD        0.539669    0.413505    0.728976     0.005394
PD3639   PD        0.539049    0.449497    0.696188     0.005394
PD3640   PD        0.570981    0.412196    0.702325     0.005394
AU3641   AU        0.572108    0.451874    0.728969     0.007504
PD3642   PD        0.604920    0.414357    0.732836     0.005394
PD3643   PD        0.606413    0.448299    0.698092     0.005394
AU3644   AU        0.637930    0.414506    0.698081     0.007504
PD3645   PD        0.636297    0.449617    0.731479     0.005394
PD3646   PD        0.669772    0.411893    0.732990     0.005394
AU3647   AU        0.670327    0.447309    0.696980     0.007504
AU3648   AU        0.704348    0.413242    0.699271     0.007504
PD3649   PD        0.703337    0.448174    0.729661     0.005394
PD3650   PD        0.733406    0.448669    0.697531     0.005394
PD3651   PD        0.138649    0.521964    0.701470     0.005394
AU3652   AU        0.170551    0.486733    0.697099     0.007504
PD3653   PD        0.173658    0.520571    0.729483     0.005394
AU3654   AU        0.205425    0.485774    0.728701     0.007504
AU3655   AU        0.204628    0.521738    0.697575     0.007504
AU3656   AU        0.238803    0.485991    0.698000     0.007504
AU3657   AU        0.236523    0.521779    0.731070     0.007504
AU3658   AU        0.270554    0.488150    0.732240     0.007504
AU3659   AU        0.268884    0.520161    0.699159     0.007504
AU3660   AU        0.301174    0.484848    0.699692     0.007504
PD3661   PD        0.302353    0.521265    0.730124     0.005394
PD3662   PD        0.336019    0.485994    0.732866     0.005394
AU3663   AU        0.337392    0.522892    0.698863     0.007504
PD3664   PD        0.368868    0.486394    0.696695     0.005394
AU3665   AU        0.370126    0.520459    0.731931     0.007504
AU3666   AU        0.402965    0.483650    0.732650     0.007504
PD3667   PD        0.401552    0.520992    0.700187     0.005394
AU3668   AU        0.437281    0.485622    0.698318     0.007504
PD3669   PD        0.436719    0.520309    0.729000     0.005394
PD3670   PD        0.468513    0.486025    0.732025     0.005394
PD3671   PD        0.471945    0.520391    0.698482     0.005394
PD3672   PD        0.503601    0.487996    0.700762     0.005394
AU3673   AU        0.504924    0.522279    0.731160     0.007504
PD3674   PD        0.537697    0.486265    0.729863     0.005394
AU3675   AU        0.537510    0.520461    0.699723     0.007504
AU3676   AU        0.571295    0.486983    0.699182     0.007504
PD3677   PD        0.570797    0.519438    0.732110     0.005394
PD3678   PD        0.604448    0.484450    0.732188     0.005394
AU3679   AU        0.605975    0.521373    0.699316     0.007504
AU3680   AU        0.638756    0.484867    0.697278     0.007504
PD3681   PD        0.639121    0.520027    0.730053     0.005394
PD3682   PD        0.669315    0.485062    0.730878     0.005394
AU3683   AU        0.670236    0.523210    0.698382     0.007504
PD3684   PD        0.703678    0.486863    0.697131     0.005394
PD3685   PD        0.708781    0.636296    0.761326     0.005394
PD3686   PD        0.735336    0.526066    0.700194     0.005394
PD3687   PD        0.169824    0.557891    0.701553     0.005394
PD3688   PD        0.206197    0.557037    0.731255     0.005394
PD3689   PD        0.207323    0.588907    0.698896     0.005394
PD3690   PD        0.239055    0.556362    0.698462     0.005394
AU3691   AU        0.237510    0.591753    0.732153     0.007504
PD3692   PD        0.270528    0.555355    0.730717     0.005394
AU3693   AU        0.271874    0.591943    0.699540     0.007504
AU3694   AU        0.303116    0.555756    0.698343     0.007504
PD3695   PD        0.300887    0.592676    0.732429     0.005394
AU3696   AU        0.334508    0.556132    0.732762     0.007504
PD3697   PD        0.336563    0.592311    0.700350     0.005394
AU3698   AU        0.368432    0.555295    0.698792     0.007504
PD3699   PD        0.369462    0.590935    0.730709     0.005394
AU3700   AU        0.403851    0.555986    0.732052     0.007504
AU3701   AU        0.401548    0.593313    0.698929     0.007504
PD3702   PD        0.437419    0.556311    0.698207     0.005394
AU3703   AU        0.435179    0.594376    0.732416     0.007504
AU3704   AU        0.470171    0.558429    0.730813     0.007504
AU3705   AU        0.468997    0.593167    0.700135     0.007504
PD3706   PD        0.504623    0.557407    0.699802     0.005394
PD3707   PD        0.506211    0.592882    0.732593     0.005394
PD3708   PD        0.539201    0.556612    0.732377     0.005394
PD3709   PD        0.540371    0.591547    0.700643     0.005394
AU3710   AU        0.570036    0.557173    0.700071     0.007504
AU3711   AU        0.568554    0.592298    0.731695     0.007504
AU3712   AU        0.603620    0.556676    0.732074     0.007504
AU3713   AU        0.603286    0.592265    0.698841     0.007504
AU3714   AU        0.636056    0.556980    0.699021     0.007504
AU3715   AU        0.636577    0.592885    0.730696     0.007504
AU3716   AU        0.671316    0.556960    0.732082     0.007504
AU3717   AU        0.668579    0.591844    0.698443     0.007504
AU3718   AU        0.701524    0.559340    0.699241     0.007504
PD3719   PD        0.170879    0.628405    0.700266     0.005394
PD3720   PD        0.202619    0.632103    0.730456     0.005394
AU3721   AU        0.205192    0.665168    0.697082     0.007504
AU3722   AU        0.237893    0.629025    0.701008     0.007504
AU3723   AU        0.237642    0.666884    0.731676     0.007504
PD3724   PD        0.266972    0.627779    0.734878     0.005394
AU3725   AU        0.268935    0.663554    0.699221     0.007504
AU3726   AU        0.305387    0.629382    0.696417     0.007504
PD3727   PD        0.302996    0.663386    0.733647     0.005394
PD3728   PD        0.334885    0.628996    0.731349     0.005394
PD3729   PD        0.337057    0.663010    0.698640     0.005394
AU3730   AU        0.368090    0.625846    0.699275     0.007504
AU3731   AU        0.371855    0.663082    0.731007     0.007504
AU3732   AU        0.401225    0.626703    0.731549     0.007504
PD3733   PD        0.399859    0.662202    0.701727     0.005394
AU3734   AU        0.434661    0.626813    0.699176     0.007504
AU3735   AU        0.435154    0.663970    0.730553     0.007504
AU3736   AU        0.469537    0.627831    0.732914     0.007504
AU3737   AU        0.470052    0.664197    0.700517     0.007504
AU3738   AU        0.503194    0.629277    0.700067     0.007504
AU3739   AU        0.501708    0.663795    0.731688     0.007504
PD3740   PD        0.535137    0.627731    0.729013     0.005394
AU3741   AU        0.534991    0.665394    0.698662     0.007504
PD3742   PD        0.569525    0.628795    0.700190     0.005394
PD3743   PD        0.570192    0.664463    0.730204     0.005394
AU3744   AU        0.603587    0.628693    0.730267     0.007504
PD3745   PD        0.604730    0.663411    0.700507     0.005394
PD3746   PD        0.635804    0.627983    0.699980     0.005394
PD3747   PD        0.640168    0.663940    0.730682     0.005394
AU3748   AU        0.669113    0.626748    0.732226     0.007504
PD3749   PD        0.672042    0.662709    0.698623     0.005394
AU3750   AU        0.702734    0.624968    0.698694     0.007504
PD3751   PD        0.237966    0.768088    0.696803     0.005394
AU3752   AU        0.272252    0.699463    0.732725     0.007504
AU3753   AU        0.270969    0.733198    0.696506     0.007504
AU3754   AU        0.302532    0.698266    0.697031     0.007504
PD3755   PD        0.303148    0.733939    0.731201     0.005394
AU3756   AU        0.337062    0.698588    0.730652     0.007504
AU3757   AU        0.335427    0.734803    0.699070     0.007504
AU3758   AU        0.370634    0.698292    0.699308     0.007504
AU3759   AU        0.370429    0.733309    0.731155     0.007504
PD3760   PD        0.404413    0.698267    0.732215     0.005394
AU3761   AU        0.404285    0.732704    0.698326     0.007504
PD3762   PD        0.437395    0.699053    0.698299     0.005394
AU3763   AU        0.435833    0.731381    0.730710     0.007504
PD3764   PD        0.469012    0.698863    0.733972     0.005394
PD3765   PD        0.467113    0.733318    0.700214     0.005394
AU3766   AU        0.501985    0.699069    0.700174     0.007504
AU3767   AU        0.500832    0.733258    0.731493     0.007504
AU3768   AU        0.537187    0.698734    0.732427     0.007504
AU3769   AU        0.536124    0.733762    0.698244     0.007504
PD3770   PD        0.570167    0.698905    0.699322     0.005394
AU3771   AU        0.568282    0.733514    0.734265     0.007504
PD3772   PD        0.603752    0.697770    0.733177     0.005394
AU3773   AU        0.601213    0.734716    0.700273     0.007504
AU3774   AU        0.635926    0.697209    0.697431     0.007504
PD3775   PD        0.307744    0.771401    0.695851     0.005394
PD3776   PD        0.368766    0.769376    0.697270     0.005394
PD3777   PD        0.404254    0.769112    0.733570     0.005394
AU3778   AU        0.402253    0.801680    0.699484     0.007504
AU3779   AU        0.434764    0.768076    0.699283     0.007504
AU3780   AU        0.467117    0.767539    0.732999     0.007504
AU3781   AU        0.466946    0.801906    0.701685     0.007504
PD3782   PD        0.502633    0.770248    0.699309     0.005394
PD3783   PD        0.569484    0.770136    0.701048     0.005394
PD3784   PD        0.398527    0.234637    0.759830     0.005394
PD3785   PD        0.504109    0.238275    0.796713     0.005394
PD3786   PD        0.268658    0.346455    0.800657     0.005394
PD3787   PD        0.333126    0.308120    0.762453     0.005394
PD3788   PD        0.370360    0.274648    0.762906     0.005394
PD3789   PD        0.390348    0.283912    0.818111     0.005394
PD3790   PD        0.403668    0.307030    0.761703     0.005394
PD3791   PD        0.437926    0.270881    0.761884     0.005394
PD3792   PD        0.436869    0.306177    0.795259     0.005394
AU3793   AU        0.468374    0.307366    0.765969     0.007504
PD3794   PD        0.504670    0.275651    0.769243     0.005394
PD3795   PD        0.538711    0.305723    0.833201     0.005394
AU3796   AU        0.534192    0.304346    0.766496     0.007504
PD3797   PD        0.604045    0.309380    0.764631     0.005394
AU3798   AU        0.270861    0.379656    0.764141     0.007504
AU3799   AU        0.302011    0.342758    0.767101     0.007504
AU3800   AU        0.303914    0.379122    0.797419     0.007504
PD3801   PD        0.337354    0.345446    0.796621     0.005394
AU3802   AU        0.335103    0.377632    0.763070     0.007504
PD3803   PD        0.370383    0.345042    0.763438     0.005394
PD3804   PD        0.371123    0.345268    0.831882     0.005394
PD3805   PD        0.403782    0.344869    0.795672     0.005394
AU3806   AU        0.405172    0.379586    0.765841     0.007504
AU3807   AU        0.438357    0.344721    0.764859     0.007504
PD3808   PD        0.437927    0.377410    0.797127     0.005394
PD3809   PD        0.472624    0.341955    0.799836     0.005394
AU3810   AU        0.470724    0.377650    0.765113     0.007504
AU3811   AU        0.502033    0.341036    0.763314     0.007504
AU3812   AU        0.503977    0.378504    0.797196     0.007504
AU3813   AU        0.533616    0.342635    0.799238     0.007504
PD3814   PD        0.535855    0.378657    0.763730     0.005394
PD3815   PD        0.567749    0.340940    0.764604     0.005394
PD3816   PD        0.571914    0.377858    0.797997     0.005394
PD3817   PD        0.603686    0.381414    0.766706     0.005394
PD3818   PD        0.202887    0.452478    0.761030     0.005394
PD3819   PD        0.238134    0.413893    0.764103     0.005394
PD3820   PD        0.269606    0.415373    0.797850     0.005394
PD3821   PD        0.271578    0.451438    0.765312     0.005394
AU3822   AU        0.304967    0.414358    0.763780     0.007504
PD3823   PD        0.302871    0.449787    0.794643     0.005394
PD3824   PD        0.337230    0.415567    0.796234     0.005394
AU3825   AU        0.337172    0.449377    0.762373     0.007504
PD3826   PD        0.370387    0.413387    0.764046     0.005394
AU3827   AU        0.371559    0.447857    0.795697     0.007504
PD3828   PD        0.406250    0.417367    0.796304     0.005394
PD3829   PD        0.403785    0.448663    0.766188     0.005394
PD3830   PD        0.435659    0.411898    0.766133     0.005394
PD3831   PD        0.436766    0.450431    0.794872     0.005394
AU3832   AU        0.470053    0.415256    0.800021     0.007504
PD3833   PD        0.468954    0.448577    0.764218     0.005394
PD3834   PD        0.501137    0.413405    0.765542     0.005394
AU3835   AU        0.504648    0.449195    0.795257     0.007504
AU3836   AU        0.539258    0.414116    0.796951     0.007504
PD3837   PD        0.537937    0.451723    0.763132     0.005394
PD3838   PD        0.568960    0.410705    0.765910     0.005394
PD3839   PD        0.569084    0.451190    0.798502     0.005394
AU3840   AU        0.603234    0.414063    0.799156     0.007504
AU3841   AU        0.602310    0.448780    0.764613     0.007504
PD3842   PD        0.637649    0.413777    0.764420     0.005394
PD3843   PD        0.668305    0.449464    0.765064     0.005394
AU3844   AU        0.206267    0.517108    0.765112     0.007504
AU3845   AU        0.237428    0.483144    0.763731     0.007504
PD3846   PD        0.271954    0.486739    0.795755     0.005394
PD3847   PD        0.270087    0.520726    0.765108     0.005394
PD3848   PD        0.303467    0.486110    0.765284     0.005394
PD3849   PD        0.304127    0.520882    0.795483     0.005394
PD3850   PD        0.336059    0.481920    0.796369     0.005394
PD3851   PD        0.337504    0.522328    0.764499     0.005394
PD3852   PD        0.370606    0.484471    0.764638     0.005394
PD3853   PD        0.371810    0.521376    0.799352     0.005394
AU3854   AU        0.404482    0.486063    0.798377     0.007504
AU3855   AU        0.404581    0.522970    0.764133     0.007504
PD3856   PD        0.437540    0.486711    0.764137     0.005394
PD3857   PD        0.435759    0.521848    0.796305     0.005394
PD3858   PD        0.467895    0.486511    0.797943     0.005394
PD3859   PD        0.469121    0.522273    0.764386     0.005394
PD3860   PD        0.503949    0.485604    0.764509     0.005394
AU3861   AU        0.504397    0.519765    0.798967     0.007504
PD3862   PD        0.535129    0.450518    0.828542     0.005394
PD3863   PD        0.536783    0.520729    0.763696     0.005394
AU3864   AU        0.570254    0.485120    0.764428     0.007504
PD3865   PD        0.570851    0.523120    0.794886     0.005394
PD3866   PD        0.604009    0.481858    0.795646     0.005394
AU3867   AU        0.605523    0.520508    0.763573     0.007504
AU3868   AU        0.638302    0.484359    0.764461     0.007504
PD3869   PD        0.670337    0.519663    0.765832     0.005394
PD3870   PD        0.240403    0.553276    0.765557     0.005394
PD3871   PD        0.269399    0.556157    0.799228     0.005394
PD3872   PD        0.270223    0.593198    0.766003     0.005394
AU3873   AU        0.301132    0.557519    0.764584     0.007504
AU3874   AU        0.306304    0.593612    0.799227     0.007504
PD3875   PD        0.335595    0.555464    0.795508     0.005394
AU3876   AU        0.336473    0.593366    0.763297     0.007504
AU3877   AU        0.370619    0.557011    0.762526     0.007504
PD3878   PD        0.368099    0.590676    0.797712     0.005394
AU3879   AU        0.404082    0.559689    0.797675     0.007504
AU3880   AU        0.403350    0.591691    0.763595     0.007504
PD3881   PD        0.436259    0.558804    0.764443     0.005394
AU3882   AU        0.435999    0.592714    0.795409     0.007504
AU3883   AU        0.470834    0.557330    0.795703     0.007504
AU3884   AU        0.470525    0.592217    0.763541     0.007504
AU3885   AU        0.504035    0.558312    0.764846     0.007504
AU3886   AU        0.503445    0.592059    0.797808     0.007504
PD3887   PD        0.536140    0.555918    0.795293     0.005394
AU3888   AU        0.536679    0.592678    0.764900     0.007504
AU3889   AU        0.572515    0.558260    0.764454     0.007504
PD3890   PD        0.564333    0.629447    0.834328     0.005394
PD3891   PD        0.605236    0.556743    0.797580     0.005394
AU3892   AU        0.604760    0.591971    0.762834     0.007504
PD3893   PD        0.637096    0.556267    0.763329     0.005394
AU3894   AU        0.270142    0.666197    0.765385     0.007504
AU3895   AU        0.301701    0.628142    0.766790     0.007504
PD3896   PD        0.338632    0.627339    0.797709     0.005394
PD3897   PD        0.339863    0.664459    0.763050     0.005394
AU3898   AU        0.369505    0.626831    0.762927     0.007504
PD3899   PD        0.370667    0.664686    0.795023     0.005394
PD3900   PD        0.403248    0.627306    0.794931     0.005394
AU3901   AU        0.402881    0.663014    0.764360     0.007504
AU3902   AU        0.437602    0.627991    0.766296     0.007504
AU3903   AU        0.434251    0.662379    0.799866     0.007504
PD3904   PD        0.468041    0.625305    0.796884     0.005394
AU3905   AU        0.468943    0.662102    0.764398     0.007504
PD3906   PD        0.503296    0.625036    0.764523     0.005394
PD3907   PD        0.503034    0.666525    0.797223     0.005394
PD3908   PD        0.534577    0.628811    0.797051     0.005394
AU3909   AU        0.534716    0.660013    0.763933     0.007504
PD3910   PD        0.569090    0.626358    0.763904     0.005394
PD3911   PD        0.602483    0.663678    0.767683     0.005394
PD3912   PD        0.372230    0.701213    0.763929     0.005394
PD3913   PD        0.403898    0.735328    0.763492     0.005394
PD3914   PD        0.434252    0.697515    0.765392     0.005394
PD3915   PD        0.506049    0.769005    0.762698     0.005394
PD3916   PD        0.501733    0.701272    0.764661     0.005394
PD3917   PD        0.439896    0.451702    0.864847     0.005394
AU3918   AU        0.436658    0.415618    0.831543     0.007504
AU3919   AU        0.469260    0.451120    0.829851     0.007504
PD3920   PD        0.369446    0.479905    0.897886     0.005394
PD3921   PD        0.404323    0.489355    0.861581     0.005394
PD3922   PD        0.438205    0.487019    0.828793     0.005394
PD3923   PD        0.470872    0.520980    0.828171     0.005394
PD3924   PD        0.474823    0.486109    0.864115     0.005394
PD3925   PD        0.440896    0.560002    0.828308     0.005394
