data_00001
_audit_creation_method   'DISCUS'

_data_chemical_name_common 'Pd.cell: Pearson 85'

_cell_length_a             57.1046
_cell_length_b             57.1046
_cell_length_c             57.1046
_cell_angle_alpha     90.0000
_cell_angle_beta      90.0000
_cell_angle_gamma     90.0000

_symmetry_space_group_name_H-M   'P1              '

loop_
_atom_site_label
_atom_site_symbol
_atom_site_fract_x
_atom_site_fract_y
_atom_site_fract_z
_atom_site_u_iso_or_equiv
NI1   NI        0.357312    0.265419    0.054879     0.004307
NI2   NI        0.409514    0.278745    0.027893     0.004307
NI3   NI        0.508088    0.262336    0.058353     0.004307
NI4   NI        0.306393    0.334587    0.049322     0.004307
NI5   NI        0.336753    0.298168    0.059462     0.004307
NI6   NI        0.374709    0.330875    0.057002     0.004307
PD7   PD        0.406439    0.296632    0.059735     0.005394
PD8   PD        0.441443    0.330363    0.059611     0.005394
NI9   NI        0.474954    0.294976    0.061024     0.004307
NI10   NI        0.510500    0.330990    0.064328     0.004307
NI11   NI        0.543765    0.297387    0.061706     0.004307
NI12   NI        0.578116    0.331027    0.060684     0.004307
NI13   NI        0.263125    0.352597    0.033427     0.004307
NI14   NI        0.269904    0.398957    0.025127     0.004307
NI15   NI        0.339621    0.366657    0.058845     0.004307
NI16   NI        0.374381    0.400304    0.054152     0.004307
PD17   PD        0.408305    0.365757    0.059561     0.005394
NI18   NI        0.407058    0.398962    0.024847     0.004307
NI19   NI        0.418291    0.358746    0.007617     0.004307
PD20   PD        0.444298    0.398755    0.058968     0.005394
PD21   PD        0.475533    0.364618    0.060607     0.005394
NI22   NI        0.453840    0.391112    0.000714     0.004307
NI23   NI        0.510293    0.398759    0.060938     0.004307
NI24   NI        0.544575    0.365823    0.062903     0.004307
NI25   NI        0.578066    0.401158    0.054482     0.004307
NI26   NI        0.614611    0.367682    0.055526     0.004307
NI27   NI        0.268368    0.433974    0.060384     0.004307
PD28   PD        0.304461    0.466958    0.060369     0.005394
NI29   NI        0.339838    0.434544    0.060461     0.004307
NI30   NI        0.371878    0.432247    0.026031     0.004307
PD31   PD        0.372835    0.466858    0.061206     0.005394
PD32   PD        0.408237    0.433389    0.058465     0.005394
NI33   NI        0.407436    0.467663    0.024745     0.004307
NI34   NI        0.440151    0.432817    0.022897     0.004307
NI35   NI        0.431110    0.491418    0.061911     0.004307
PD36   PD        0.477385    0.433773    0.056738     0.005394
NI37   NI        0.472541    0.467532    0.022710     0.004307
NI38   NI        0.509910    0.431614    0.023754     0.004307
NI39   NI        0.554032    0.463701    0.039069     0.004307
NI40   NI        0.545150    0.435069    0.055388     0.004307
NI41   NI        0.578008    0.470987    0.052580     0.004307
NI42   NI        0.604844    0.429209    0.073418     0.004307
NI43   NI        0.268830    0.501373    0.058679     0.004307
NI44   NI        0.296658    0.567855    0.042762     0.004307
NI45   NI        0.337650    0.500916    0.059961     0.004307
PD46   PD        0.372218    0.536602    0.056501     0.005394
PD47   PD        0.405555    0.502226    0.056410     0.005394
NI48   NI        0.439265    0.503185    0.021820     0.004307
PD49   PD        0.438604    0.538285    0.055456     0.005394
PD50   PD        0.474614    0.502621    0.055486     0.005394
NI51   NI        0.507542    0.538141    0.054230     0.004307
NI52   NI        0.541520    0.504206    0.052657     0.004307
NI53   NI        0.569615    0.553338    0.027552     0.004307
NI54   NI        0.623040    0.497090    0.072468     0.004307
NI55   NI        0.337543    0.570644    0.059791     0.004307
NI56   NI        0.366047    0.635369    0.094608     0.004307
NI57   NI        0.405089    0.573115    0.058008     0.004307
NI58   NI        0.433203    0.620369    0.040559     0.004307
NI59   NI        0.498027    0.580797    0.061470     0.004307
NI60   NI        0.513485    0.605834    0.065737     0.004307
NI61   NI        0.544564    0.568999    0.063402     0.004307
NI62   NI        0.271800    0.187161    0.136231     0.004307
NI63   NI        0.370061    0.185971    0.127964     0.004307
NI64   NI        0.429013    0.153198    0.106804     0.004307
NI65   NI        0.404117    0.152312    0.091159     0.004307
NI66   NI        0.438987    0.194365    0.129315     0.004307
NI67   NI        0.470548    0.157457    0.128924     0.004307
NI68   NI        0.474599    0.194417    0.096261     0.004307
NI69   NI        0.503943    0.188989    0.129108     0.004307
NI70   NI        0.591407    0.181189    0.113290     0.004307
NI71   NI        0.239807    0.267186    0.135066     0.004307
NI72   NI        0.266851    0.233264    0.134291     0.004307
NI73   NI        0.239960    0.271154    0.095906     0.004307
PD74   PD        0.304024    0.263141    0.130128     0.005394
NI75   NI        0.347739    0.241614    0.131139     0.004307
NI76   NI        0.315681    0.257472    0.075122     0.004307
NI77   NI        0.385697    0.240343    0.087956     0.004307
PD78   PD        0.371008    0.264289    0.127223     0.005394
NI79   NI        0.380119    0.228407    0.155638     0.004307
PD80   PD        0.405744    0.261383    0.094232     0.005394
NI81   NI        0.440204    0.228060    0.096349     0.004307
PD82   PD        0.439225    0.262734    0.130502     0.005394
PD83   PD        0.473181    0.226905    0.130201     0.005394
NI84   NI        0.437844    0.261397    0.060456     0.004307
NI85   NI        0.530225    0.237127    0.067707     0.004307
PD86   PD        0.506042    0.261057    0.127368     0.005394
NI87   NI        0.538456    0.224587    0.128309     0.004307
NI88   NI        0.573924    0.252865    0.086271     0.004307
NI89   NI        0.577997    0.263170    0.130771     0.004307
NI90   NI        0.628506    0.230952    0.134490     0.004307
NI91   NI        0.607462    0.260265    0.093281     0.004307
NI92   NI        0.657896    0.268749    0.120025     0.004307
NI93   NI        0.228312    0.294548    0.115611     0.004307
NI94   NI        0.227422    0.307002    0.117986     0.004307
NI95   NI        0.270006    0.296901    0.133069     0.004307
NI96   NI        0.271137    0.332160    0.075390     0.004307
NI97   NI        0.302341    0.300059    0.093717     0.004307
NI98   NI        0.311388    0.305945    0.109947     0.004307
PD99   PD        0.337632    0.297039    0.128027     0.005394
NI100   NI        0.333894    0.352258    0.067930     0.004307
NI101   NI        0.351160    0.310170    0.081690     0.004307
PD102   PD        0.373590    0.332929    0.127986     0.005394
PD103   PD        0.403187    0.298791    0.126873     0.005394
PD104   PD        0.407952    0.331280    0.092812     0.005394
PD105   PD        0.438825    0.296932    0.094213     0.005394
PD106   PD        0.439129    0.330911    0.129091     0.005394
PD107   PD        0.473791    0.295491    0.128801     0.005394
NI108   NI        0.475780    0.354172    0.084330     0.004307
PD109   PD        0.508624    0.295692    0.093343     0.005394
PD110   PD        0.506759    0.330231    0.129083     0.005394
NI111   NI        0.546178    0.299987    0.120312     0.004307
NI112   NI        0.543262    0.330949    0.098034     0.004307
NI113   NI        0.574943    0.296728    0.093857     0.004307
NI114   NI        0.566357    0.346190    0.126879     0.004307
NI115   NI        0.609761    0.294871    0.128169     0.004307
NI116   NI        0.629036    0.305474    0.110384     0.004307
NI117   NI        0.644769    0.314249    0.127693     0.004307
NI118   NI        0.674605    0.305479    0.092546     0.004307
NI119   NI        0.164780    0.398914    0.132888     0.004307
NI120   NI        0.191474    0.358099    0.138599     0.004307
NI121   NI        0.212287    0.399484    0.074972     0.004307
NI122   NI        0.242062    0.388094    0.113017     0.004307
NI123   NI        0.229381    0.373034    0.113162     0.004307
NI124   NI        0.269446    0.365051    0.128892     0.004307
NI125   NI        0.252743    0.405249    0.088121     0.004307
NI126   NI        0.296370    0.348205    0.090853     0.004307
PD127   PD        0.305339    0.399575    0.129117     0.005394
NI128   NI        0.336656    0.366684    0.127580     0.004307
NI129   NI        0.339317    0.400940    0.090631     0.004307
PD130   PD        0.372784    0.366707    0.092519     0.005394
PD131   PD        0.373621    0.399561    0.125523     0.005394
NI132   NI        0.393397    0.359794    0.128133     0.004307
NI133   NI        0.433166    0.399751    0.079249     0.004307
PD134   PD        0.441008    0.366440    0.093399     0.005394
PD135   PD        0.443160    0.400518    0.125862     0.005394
NI136   NI        0.505023    0.373599    0.113890     0.004307
PD137   PD        0.478356    0.399085    0.091438     0.005394
NI138   NI        0.509823    0.362269    0.093349     0.004307
NI139   NI        0.494810    0.392919    0.124762     0.004307
NI140   NI        0.546918    0.368739    0.123728     0.004307
PD141   PD        0.545787    0.399889    0.090455     0.005394
NI142   NI        0.585314    0.370670    0.090429     0.004307
NI143   NI        0.600754    0.391854    0.150877     0.004307
NI144   NI        0.626783    0.357794    0.137764     0.004307
NI145   NI        0.626350    0.423555    0.074117     0.004307
NI146   NI        0.651672    0.346982    0.097232     0.004307
NI147   NI        0.641149    0.389310    0.122576     0.004307
NI148   NI        0.683035    0.367075    0.134186     0.004307
NI149   NI        0.694834    0.378039    0.089045     0.004307
NI150   NI        0.684983    0.397432    0.127756     0.004307
NI151   NI        0.166540    0.468266    0.132071     0.004307
NI152   NI        0.200213    0.434763    0.105657     0.004307
NI153   NI        0.201340    0.468432    0.094204     0.004307
NI154   NI        0.234891    0.433522    0.096668     0.004307
NI155   NI        0.236524    0.468224    0.130241     0.004307
NI156   NI        0.272934    0.443438    0.107389     0.004307
NI157   NI        0.287641    0.473078    0.075767     0.004307
PD158   PD        0.305674    0.432551    0.094291     0.005394
NI159   NI        0.298648    0.480625    0.121928     0.004307
PD160   PD        0.339579    0.431446    0.126414     0.005394
PD161   PD        0.338415    0.468929    0.093864     0.005394
PD162   PD        0.374528    0.435114    0.093244     0.005394
PD163   PD        0.373382    0.468056    0.124424     0.005394
NI164   NI        0.394905    0.436876    0.106719     0.004307
PD165   PD        0.407291    0.468855    0.091517     0.005394
NI166   NI        0.418755    0.452103    0.085383     0.004307
PD167   PD        0.442895    0.467378    0.123952     0.005394
PD168   PD        0.477240    0.433954    0.123641     0.005394
NI169   NI        0.476930    0.481863    0.063813     0.004307
PD170   PD        0.512924    0.434918    0.088923     0.005394
PD171   PD        0.510644    0.469425    0.122190     0.005394
PD172   PD        0.547339    0.437827    0.122918     0.005394
PD173   PD        0.543479    0.471445    0.087438     0.005394
NI174   NI        0.596701    0.438739    0.078310     0.004307
PD175   PD        0.578797    0.471070    0.120600     0.005394
NI176   NI        0.615369    0.440480    0.119971     0.004307
NI177   NI        0.613729    0.473832    0.087396     0.004307
NI178   NI        0.645987    0.438602    0.085663     0.004307
NI179   NI        0.648312    0.474040    0.120037     0.004307
NI180   NI        0.694442    0.413299    0.137887     0.004307
NI181   NI        0.692140    0.461293    0.099930     0.004307
NI182   NI        0.712541    0.471154    0.131463     0.004307
NI183   NI        0.202090    0.499744    0.129443     0.004307
NI184   NI        0.246749    0.518498    0.092375     0.004307
NI185   NI        0.225600    0.500930    0.119892     0.004307
PD186   PD        0.271437    0.502190    0.129887     0.005394
NI187   NI        0.233735    0.572884    0.099493     0.004307
PD188   PD        0.304072    0.501262    0.093181     0.005394
PD189   PD        0.304387    0.537003    0.126866     0.005394
PD190   PD        0.338333    0.502207    0.127872     0.005394
NI191   NI        0.345756    0.562647    0.069103     0.004307
PD192   PD        0.370484    0.503166    0.091940     0.005394
PD193   PD        0.373754    0.537440    0.125675     0.005394
NI194   NI        0.403613    0.525181    0.118130     0.004307
PD195   PD        0.407075    0.538010    0.089914     0.005394
PD196   PD        0.441835    0.502831    0.089556     0.005394
NI197   NI        0.423942    0.529299    0.120234     0.004307
PD198   PD        0.476065    0.503562    0.123664     0.005394
NI199   NI        0.501686    0.526379    0.088187     0.004307
PD200   PD        0.509970    0.504650    0.087923     0.005394
PD201   PD        0.508706    0.538785    0.123793     0.005394
NI202   NI        0.543507    0.501799    0.128232     0.004307
NI203   NI        0.572428    0.531882    0.069104     0.004307
PD204   PD        0.578214    0.506254    0.087796     0.005394
PD205   PD        0.578071    0.540316    0.123664     0.005394
PD206   PD        0.613108    0.507287    0.119241     0.005394
NI207   NI        0.595905    0.546283    0.079251     0.004307
NI208   NI        0.656524    0.518104    0.103533     0.004307
NI209   NI        0.645678    0.542702    0.120457     0.004307
NI210   NI        0.683110    0.503934    0.119966     0.004307
NI211   NI        0.211729    0.570198    0.156044     0.004307
NI212   NI        0.230799    0.610741    0.115770     0.004307
PD213   PD        0.270698    0.570920    0.128675     0.005394
NI214   NI        0.268266    0.603245    0.097674     0.004307
PD215   PD        0.302778    0.570398    0.091609     0.005394
NI216   NI        0.297013    0.611016    0.114252     0.004307
PD217   PD        0.338179    0.570856    0.126527     0.005394
NI218   NI        0.337199    0.604058    0.092676     0.004307
PD219   PD        0.370341    0.572579    0.092608     0.005394
PD220   PD        0.372295    0.604059    0.129169     0.005394
PD221   PD        0.405740    0.571937    0.123973     0.005394
PD222   PD        0.405330    0.606653    0.092393     0.005394
PD223   PD        0.440290    0.571905    0.091393     0.005394
PD224   PD        0.438661    0.605669    0.126086     0.005394
PD225   PD        0.473820    0.571698    0.123599     0.005394
PD226   PD        0.473462    0.607889    0.092324     0.005394
NI227   NI        0.507513    0.573757    0.091177     0.004307
NI228   NI        0.522898    0.602022    0.133440     0.004307
NI229   NI        0.548442    0.610226    0.118161     0.004307
NI230   NI        0.541278    0.607464    0.090068     0.004307
NI231   NI        0.572688    0.574693    0.090158     0.004307
NI232   NI        0.575448    0.609759    0.124620     0.004307
NI233   NI        0.634193    0.549057    0.127777     0.004307
NI234   NI        0.639348    0.616922    0.080588     0.004307
NI235   NI        0.649992    0.592020    0.120991     0.004307
NI236   NI        0.691020    0.584434    0.136835     0.004307
NI237   NI        0.268844    0.637687    0.125626     0.004307
NI238   NI        0.299861    0.674042    0.113551     0.004307
NI239   NI        0.335939    0.636864    0.129989     0.004307
NI240   NI        0.373519    0.640407    0.095599     0.004307
NI241   NI        0.369535    0.673942    0.129136     0.004307
PD242   PD        0.404334    0.639525    0.128544     0.005394
NI243   NI        0.404643    0.674740    0.096998     0.004307
NI244   NI        0.440004    0.641024    0.093723     0.004307
NI245   NI        0.440543    0.675055    0.130684     0.004307
PD246   PD        0.472375    0.641073    0.127613     0.005394
NI247   NI        0.473144    0.676415    0.096082     0.004307
NI248   NI        0.507893    0.644234    0.094259     0.004307
NI249   NI        0.527349    0.685757    0.104896     0.004307
NI250   NI        0.549486    0.629742    0.160882     0.004307
NI251   NI        0.580962    0.658725    0.144846     0.004307
NI252   NI        0.626845    0.633677    0.122445     0.004307
NI253   NI        0.405992    0.707470    0.132580     0.004307
NI254   NI        0.473637    0.709533    0.128902     0.004307
NI255   NI        0.316924    0.114607    0.176435     0.004307
NI256   NI        0.402237    0.090015    0.198714     0.004307
NI257   NI        0.393320    0.107359    0.190748     0.004307
NI258   NI        0.405722    0.115101    0.165879     0.004307
NI259   NI        0.439210    0.117236    0.199886     0.004307
NI260   NI        0.485945    0.051793    0.194659     0.004307
NI261   NI        0.472564    0.113712    0.164973     0.004307
NI262   NI        0.519373    0.110278    0.172643     0.004307
NI263   NI        0.604431    0.097602    0.192479     0.004307
NI264   NI        0.233955    0.189274    0.197962     0.004307
NI265   NI        0.266383    0.183955    0.164427     0.004307
NI266   NI        0.271284    0.195877    0.164034     0.004307
NI267   NI        0.310866    0.167995    0.162114     0.004307
PD268   PD        0.303610    0.187648    0.198349     0.005394
PD269   PD        0.337573    0.152131    0.198572     0.005394
NI270   NI        0.336866    0.194598    0.163827     0.004307
NI271   NI        0.369351    0.159009    0.162681     0.004307
NI272   NI        0.363917    0.191215    0.208429     0.004307
PD273   PD        0.403897    0.151562    0.197188     0.005394
NI274   NI        0.390437    0.179368    0.145855     0.004307
NI275   NI        0.438852    0.149375    0.165187     0.004307
NI276   NI        0.427734    0.194864    0.188388     0.004307
NI277   NI        0.460025    0.157236    0.180922     0.004307
PD278   PD        0.472483    0.194694    0.162896     0.005394
NI279   NI        0.504467    0.157336    0.162722     0.004307
PD280   PD        0.505016    0.188672    0.196397     0.005394
NI281   NI        0.548302    0.145469    0.164850     0.004307
PD282   PD        0.539704    0.190273    0.161756     0.005394
NI283   NI        0.583955    0.176050    0.164773     0.004307
NI284   NI        0.573114    0.196104    0.198528     0.004307
NI285   NI        0.608263    0.155657    0.195356     0.004307
NI286   NI        0.608231    0.190480    0.161270     0.004307
NI287   NI        0.669078    0.190009    0.171832     0.004307
NI288   NI        0.165079    0.256193    0.197378     0.004307
NI289   NI        0.201061    0.223443    0.196597     0.004307
NI290   NI        0.204495    0.261504    0.164558     0.004307
NI291   NI        0.231476    0.220109    0.163363     0.004307
NI292   NI        0.224619    0.261630    0.185745     0.004307
NI293   NI        0.254661    0.226121    0.196534     0.004307
PD294   PD        0.271182    0.263975    0.171947     0.005394
NI295   NI        0.312570    0.211240    0.145809     0.004307
NI296   NI        0.318688    0.257859    0.191201     0.004307
PD297   PD        0.336913    0.222767    0.197335     0.005394
NI298   NI        0.345409    0.259830    0.151559     0.004307
NI299   NI        0.359854    0.233846    0.156351     0.004307
PD300   PD        0.370149    0.259556    0.196492     0.005394
NI301   NI        0.413570    0.252927    0.178805     0.004307
NI302   NI        0.404396    0.241243    0.173660     0.004307
NI303   NI        0.440749    0.226711    0.146012     0.004307
PD304   PD        0.441100    0.263397    0.199324     0.005394
PD305   PD        0.471926    0.225713    0.196208     0.005394
PD306   PD        0.472322    0.260000    0.162795     0.005394
PD307   PD        0.507179    0.226058    0.162788     0.005394
PD308   PD        0.507494    0.258191    0.197414     0.005394
PD309   PD        0.541560    0.224268    0.196436     0.005394
PD310   PD        0.538182    0.258971    0.161300     0.005394
NI311   NI        0.575132    0.224668    0.161722     0.004307
NI312   NI        0.578791    0.246614    0.175726     0.004307
NI313   NI        0.619664    0.236549    0.197819     0.004307
NI314   NI        0.612018    0.245292    0.159379     0.004307
NI315   NI        0.655564    0.220679    0.169287     0.004307
NI316   NI        0.639076    0.264633    0.194513     0.004307
NI317   NI        0.680563    0.231316    0.195640     0.004307
NI318   NI        0.678358    0.262457    0.161694     0.004307
NI319   NI        0.709975    0.263842    0.180037     0.004307
NI320   NI        0.118206    0.299159    0.200440     0.004307
NI321   NI        0.156948    0.302608    0.158618     0.004307
NI322   NI        0.174800    0.327897    0.196951     0.004307
NI323   NI        0.202997    0.296296    0.198948     0.004307
NI324   NI        0.200980    0.330947    0.164930     0.004307
NI325   NI        0.232720    0.285491    0.160855     0.004307
NI326   NI        0.221244    0.341343    0.193526     0.004307
PD327   PD        0.270359    0.295813    0.200652     0.005394
NI328   NI        0.270969    0.335708    0.170199     0.004307
NI329   NI        0.302923    0.306298    0.148604     0.004307
PD330   PD        0.304561    0.317596    0.192852     0.005394
NI331   NI        0.325985    0.304614    0.186686     0.004307
PD332   PD        0.339063    0.334813    0.161438     0.005394
PD333   PD        0.369726    0.299287    0.161643     0.005394
PD334   PD        0.369984    0.328235    0.197801     0.005394
PD335   PD        0.403306    0.294664    0.197867     0.005394
PD336   PD        0.404208    0.333427    0.161878     0.005394
PD337   PD        0.439838    0.296916    0.162086     0.005394
PD338   PD        0.471675    0.329759    0.208890     0.005394
PD339   PD        0.485343    0.298763    0.197367     0.005394
PD340   PD        0.474065    0.329338    0.160905     0.005394
PD341   PD        0.507119    0.292249    0.161982     0.005394
PD342   PD        0.514635    0.332887    0.190910     0.005394
PD343   PD        0.539590    0.291746    0.196874     0.005394
PD344   PD        0.547289    0.320760    0.161073     0.005394
NI345   NI        0.591602    0.308906    0.138722     0.004307
PD346   PD        0.576591    0.324559    0.195708     0.005394
NI347   NI        0.631264    0.287550    0.199069     0.004307
NI348   NI        0.609496    0.337738    0.147532     0.004307
NI349   NI        0.668379    0.300405    0.185231     0.004307
NI350   NI        0.659405    0.330766    0.207455     0.004307
NI351   NI        0.679827    0.290018    0.195814     0.004307
NI352   NI        0.678223    0.316414    0.161496     0.004307
NI353   NI        0.710582    0.287734    0.180009     0.004307
NI354   NI        0.703880    0.332297    0.196664     0.004307
NI355   NI        0.750359    0.305009    0.173676     0.004307
NI356   NI        0.084681    0.410004    0.211085     0.004307
NI357   NI        0.137151    0.366661    0.201490     0.004307
NI358   NI        0.144941    0.409405    0.163904     0.004307
NI359   NI        0.167275    0.366385    0.165898     0.004307
NI360   NI        0.169014    0.401344    0.201523     0.004307
NI361   NI        0.202168    0.383344    0.192829     0.004307
NI362   NI        0.199592    0.406208    0.146234     0.004307
NI363   NI        0.216735    0.369309    0.161478     0.004307
NI364   NI        0.241190    0.398088    0.169557     0.004307
NI365   NI        0.247370    0.370994    0.193701     0.004307
NI366   NI        0.274349    0.393563    0.161972     0.004307
NI367   NI        0.297637    0.342224    0.155745     0.004307
PD368   PD        0.282288    0.399139    0.201630     0.005394
PD369   PD        0.339699    0.366731    0.196880     0.005394
NI370   NI        0.330543    0.377839    0.149791     0.004307
PD371   PD        0.372207    0.365235    0.162067     0.005394
PD372   PD        0.376888    0.400697    0.196780     0.005394
PD373   PD        0.407414    0.365868    0.197001     0.005394
PD374   PD        0.410752    0.399944    0.161516     0.005394
NI375   NI        0.434345    0.367410    0.146396     0.004307
PD376   PD        0.446534    0.398995    0.194718     0.005394
PD377   PD        0.488385    0.366301    0.184696     0.005394
NI378   NI        0.474918    0.421021    0.156869     0.004307
PD379   PD        0.480964    0.360246    0.157075     0.005394
PD380   PD        0.500141    0.394654    0.191960     0.005394
PD381   PD        0.538759    0.382842    0.217290     0.005394
NI382   NI        0.566107    0.395571    0.173309     0.004307
NI383   NI        0.586795    0.372019    0.138222     0.004307
PD384   PD        0.581883    0.403292    0.191073     0.005394
PD385   PD        0.617228    0.368639    0.187089     0.005394
NI386   NI        0.615421    0.405268    0.154625     0.004307
NI387   NI        0.658093    0.382749    0.165895     0.004307
NI388   NI        0.656130    0.378561    0.212144     0.004307
NI389   NI        0.687008    0.377899    0.192360     0.004307
NI390   NI        0.677340    0.392946    0.175011     0.004307
NI391   NI        0.711806    0.371634    0.171549     0.004307
NI392   NI        0.726244    0.405062    0.199405     0.004307
NI393   NI        0.744080    0.361774    0.207220     0.004307
NI394   NI        0.754571    0.410834    0.159780     0.004307
NI395   NI        0.780736    0.392493    0.205187     0.004307
NI396   NI        0.094558    0.478128    0.194664     0.004307
NI397   NI        0.136994    0.434055    0.205452     0.004307
NI398   NI        0.134327    0.468174    0.168187     0.004307
NI399   NI        0.167291    0.436068    0.166729     0.004307
NI400   NI        0.157920    0.471821    0.195270     0.004307
NI401   NI        0.187967    0.459200    0.184027     0.004307
NI402   NI        0.178811    0.455455    0.158804     0.004307
NI403   NI        0.223491    0.440575    0.159695     0.004307
PD404   PD        0.237500    0.468373    0.199040     0.005394
PD405   PD        0.256667    0.439214    0.192571     0.005394
NI406   NI        0.279502    0.449778    0.151990     0.004307
NI407   NI        0.302391    0.438747    0.143338     0.004307
PD408   PD        0.306351    0.462965    0.195564     0.005394
PD409   PD        0.341242    0.433038    0.196989     0.005394
NI410   NI        0.329867    0.463164    0.161115     0.004307
PD411   PD        0.373707    0.431295    0.160956     0.005394
PD412   PD        0.375094    0.467485    0.195057     0.005394
PD413   PD        0.407440    0.431966    0.197634     0.005394
PD414   PD        0.407895    0.467281    0.157810     0.005394
PD415   PD        0.444360    0.433550    0.158292     0.005394
PD416   PD        0.452725    0.514864    0.231750     0.005394
PD417   PD        0.476636    0.434872    0.191923     0.005394
PD418   PD        0.477193    0.468524    0.157560     0.005394
PD419   PD        0.512228    0.435648    0.157826     0.005394
PD420   PD        0.510782    0.470519    0.190425     0.005394
PD421   PD        0.547358    0.437740    0.191244     0.005394
PD422   PD        0.545653    0.469697    0.156710     0.005394
PD423   PD        0.581426    0.437939    0.156320     0.005394
NI424   NI        0.578229    0.496437    0.190010     0.004307
PD425   PD        0.615649    0.438071    0.187690     0.005394
PD426   PD        0.613172    0.466342    0.173457     0.005394
NI427   NI        0.647646    0.434371    0.167801     0.004307
NI428   NI        0.657796    0.476940    0.211927     0.004307
NI429   NI        0.682178    0.475411    0.156341     0.004307
NI430   NI        0.683611    0.472737    0.147969     0.004307
NI431   NI        0.699509    0.432831    0.157011     0.004307
NI432   NI        0.706162    0.473814    0.202181     0.004307
NI433   NI        0.751603    0.431395    0.195058     0.004307
NI434   NI        0.750399    0.474135    0.158510     0.004307
NI435   NI        0.784467    0.465635    0.207807     0.004307
NI436   NI        0.131986    0.522344    0.173730     0.004307
NI437   NI        0.168096    0.501820    0.164365     0.004307
NI438   NI        0.178983    0.536215    0.183455     0.004307
PD439   PD        0.201356    0.501724    0.198288     0.005394
NI440   NI        0.201886    0.537262    0.162589     0.004307
NI441   NI        0.225425    0.506794    0.160651     0.004307
PD442   PD        0.236199    0.538683    0.196480     0.005394
NI443   NI        0.264558    0.511314    0.190619     0.004307
PD444   PD        0.271442    0.534461    0.163923     0.005394
PD445   PD        0.305237    0.503097    0.162818     0.005394
PD446   PD        0.304395    0.530447    0.196526     0.005394
PD447   PD        0.338467    0.500018    0.192576     0.005394
NI448   NI        0.334200    0.552476    0.150516     0.004307
PD449   PD        0.374304    0.501115    0.158101     0.005394
PD450   PD        0.369880    0.534020    0.193070     0.005394
PD451   PD        0.407897    0.500044    0.193102     0.005394
PD452   PD        0.408126    0.534316    0.158757     0.005394
PD453   PD        0.421727    0.495769    0.154994     0.005394
PD454   PD        0.441782    0.535204    0.192180     0.005394
PD455   PD        0.477367    0.502172    0.191050     0.005394
PD456   PD        0.475890    0.536569    0.157230     0.005394
PD457   PD        0.511367    0.505148    0.156872     0.005394
PD458   PD        0.508825    0.537430    0.192891     0.005394
PD459   PD        0.545777    0.504204    0.189602     0.005394
PD460   PD        0.544058    0.539369    0.156297     0.005394
NI461   NI        0.599615    0.495018    0.153694     0.004307
PD462   PD        0.577038    0.539856    0.193125     0.005394
NI463   NI        0.632594    0.503553    0.194595     0.004307
PD464   PD        0.612641    0.541609    0.157415     0.005394
NI465   NI        0.650294    0.511688    0.149050     0.004307
NI466   NI        0.663043    0.541121    0.186015     0.004307
NI467   NI        0.680869    0.505399    0.199317     0.004307
NI468   NI        0.676250    0.538688    0.168163     0.004307
NI469   NI        0.715518    0.504102    0.166809     0.004307
NI470   NI        0.709027    0.543242    0.203981     0.004307
NI471   NI        0.752796    0.512504    0.186516     0.004307
NI472   NI        0.115205    0.556771    0.202021     0.004307
NI473   NI        0.167477    0.571682    0.158839     0.004307
NI474   NI        0.140022    0.590742    0.191814     0.004307
NI475   NI        0.190509    0.581579    0.171312     0.004307
NI476   NI        0.180142    0.628568    0.160522     0.004307
NI477   NI        0.237572    0.568785    0.161611     0.004307
NI478   NI        0.225050    0.623020    0.194871     0.004307
NI479   NI        0.268071    0.571303    0.194368     0.004307
NI480   NI        0.271324    0.604657    0.163185     0.004307
NI481   NI        0.296867    0.577646    0.150916     0.004307
PD482   PD        0.304332    0.602376    0.198020     0.005394
NI483   NI        0.332490    0.582471    0.185129     0.004307
PD484   PD        0.336444    0.602209    0.164659     0.005394
PD485   PD        0.373392    0.570262    0.161620     0.005394
NI486   NI        0.389295    0.614699    0.174263     0.004307
PD487   PD        0.407139    0.571517    0.194200     0.005394
PD488   PD        0.406588    0.603943    0.163164     0.005394
PD489   PD        0.441241    0.569926    0.158827     0.005394
PD490   PD        0.440288    0.605117    0.193853     0.005394
PD491   PD        0.473852    0.569950    0.193287     0.005394
NI492   NI        0.471595    0.629876    0.174849     0.004307
PD493   PD        0.508403    0.572151    0.157516     0.005394
PD494   PD        0.509815    0.605259    0.192618     0.005394
PD495   PD        0.543465    0.570830    0.192535     0.005394
PD496   PD        0.542787    0.606800    0.159779     0.005394
PD497   PD        0.577290    0.573480    0.156120     0.005394
NI498   NI        0.587031    0.618739    0.218046     0.004307
PD499   PD        0.613573    0.572749    0.189385     0.005394
NI500   NI        0.627836    0.603386    0.153100     0.004307
NI501   NI        0.668284    0.580453    0.140223     0.004307
NI502   NI        0.643973    0.607107    0.200345     0.004307
NI503   NI        0.676806    0.576174    0.199035     0.004307
NI504   NI        0.684660    0.622312    0.188876     0.004307
NI505   NI        0.687412    0.582164    0.151913     0.004307
NI506   NI        0.717538    0.600057    0.204757     0.004307
NI507   NI        0.755376    0.581325    0.208215     0.004307
NI508   NI        0.204768    0.663903    0.184694     0.004307
NI509   NI        0.235961    0.639987    0.161935     0.004307
NI510   NI        0.237183    0.661996    0.167563     0.004307
NI511   NI        0.264737    0.655614    0.218818     0.004307
NI512   NI        0.288609    0.685141    0.137880     0.004307
NI513   NI        0.301935    0.648280    0.192425     0.004307
NI514   NI        0.306507    0.673490    0.195759     0.004307
NI515   NI        0.345267    0.641004    0.201436     0.004307
NI516   NI        0.334797    0.670993    0.163490     0.004307
NI517   NI        0.372033    0.638774    0.164015     0.004307
NI518   NI        0.376757    0.679803    0.186263     0.004307
PD519   PD        0.403794    0.638089    0.195477     0.005394
NI520   NI        0.397753    0.682678    0.144389     0.004307
PD521   PD        0.440629    0.639166    0.162780     0.005394
NI522   NI        0.450919    0.664818    0.202261     0.004307
NI523   NI        0.479274    0.649908    0.217763     0.004307
PD524   PD        0.472558    0.674184    0.161770     0.005394
NI525   NI        0.520934    0.667338    0.149306     0.004307
NI526   NI        0.510214    0.675724    0.195333     0.004307
PD527   PD        0.543823    0.638345    0.197970     0.005394
NI528   NI        0.540771    0.675304    0.165248     0.004307
NI529   NI        0.575960    0.642568    0.163471     0.004307
NI530   NI        0.572370    0.693273    0.202368     0.004307
NI531   NI        0.632574    0.645326    0.206396     0.004307
NI532   NI        0.591467    0.655969    0.144869     0.004307
NI533   NI        0.643229    0.643588    0.160600     0.004307
NI534   NI        0.650443    0.701064    0.185965     0.004307
NI535   NI        0.675891    0.645821    0.196226     0.004307
NI536   NI        0.250663    0.684747    0.210890     0.004307
NI537   NI        0.303610    0.706425    0.162192     0.004307
NI538   NI        0.303554    0.741371    0.194771     0.004307
NI539   NI        0.337563    0.706097    0.198404     0.004307
NI540   NI        0.364680    0.713793    0.129707     0.004307
NI541   NI        0.371679    0.740674    0.196229     0.004307
NI542   NI        0.403911    0.706432    0.198705     0.004307
NI543   NI        0.404143    0.741204    0.166077     0.004307
NI544   NI        0.440240    0.707274    0.165528     0.004307
NI545   NI        0.473348    0.749486    0.194406     0.004307
PD546   PD        0.473079    0.708341    0.198875     0.005394
NI547   NI        0.449551    0.742749    0.176299     0.004307
NI548   NI        0.535308    0.713030    0.140845     0.004307
NI549   NI        0.526516    0.740919    0.184993     0.004307
NI550   NI        0.554604    0.722524    0.183286     0.004307
NI551   NI        0.591214    0.702447    0.158440     0.004307
NI552   NI        0.576663    0.741564    0.198658     0.004307
NI553   NI        0.585226    0.709559    0.186491     0.004307
NI554   NI        0.410671    0.804117    0.217066     0.004307
NI555   NI        0.472856    0.776839    0.200149     0.004307
PD556   PD        0.371678    0.050780    0.270481     0.005394
NI557   NI        0.441484    0.051485    0.268514     0.004307
NI558   NI        0.510616    0.054695    0.269579     0.004307
PD559   PD        0.234297    0.120381    0.267839     0.005394
NI560   NI        0.284345    0.075540    0.287227     0.004307
PD561   PD        0.268992    0.119561    0.232792     0.005394
PD562   PD        0.302960    0.120213    0.266573     0.005394
PD563   PD        0.339649    0.085356    0.267851     0.005394
PD564   PD        0.336782    0.118462    0.232580     0.005394
PD565   PD        0.370950    0.084067    0.234164     0.005394
PD566   PD        0.371293    0.117711    0.267909     0.005394
PD567   PD        0.405928    0.083605    0.269947     0.005394
PD568   PD        0.406424    0.118076    0.235417     0.005394
NI569   NI        0.438937    0.083001    0.234809     0.004307
NI570   NI        0.451559    0.104924    0.244594     0.004307
PD571   PD        0.475084    0.086364    0.269429     0.005394
NI572   NI        0.463494    0.102588    0.211968     0.004307
NI573   NI        0.510871    0.085032    0.234871     0.004307
NI574   NI        0.527590    0.129352    0.258986     0.004307
NI575   NI        0.535066    0.100394    0.252578     0.004307
NI576   NI        0.572356    0.125814    0.241305     0.004307
NI577   NI        0.594412    0.097507    0.257784     0.004307
NI578   NI        0.604815    0.097538    0.265437     0.004307
NI579   NI        0.610079    0.126542    0.230393     0.004307
NI580   NI        0.643703    0.126191    0.258908     0.004307
NI581   NI        0.187088    0.191243    0.261304     0.004307
NI582   NI        0.201003    0.169905    0.272909     0.004307
NI583   NI        0.193263    0.205252    0.217925     0.004307
PD584   PD        0.234402    0.154246    0.232781     0.005394
PD585   PD        0.234433    0.188783    0.264939     0.005394
PD586   PD        0.268097    0.154454    0.267149     0.005394
PD587   PD        0.268721    0.189318    0.232782     0.005394
PD588   PD        0.303004    0.152655    0.231737     0.005394
PD589   PD        0.302539    0.188391    0.267614     0.005394
PD590   PD        0.336672    0.154132    0.266678     0.005394
NI591   NI        0.323618    0.180740    0.224583     0.004307
PD592   PD        0.370956    0.152457    0.231832     0.005394
PD593   PD        0.369454    0.187380    0.263488     0.005394
PD594   PD        0.406164    0.153722    0.266950     0.005394
PD595   PD        0.405319    0.186366    0.230129     0.005394
NI596   NI        0.451153    0.198524    0.219499     0.004307
PD597   PD        0.438330    0.189790    0.265073     0.005394
PD598   PD        0.472744    0.153863    0.266795     0.005394
PD599   PD        0.472273    0.187610    0.231248     0.005394
NI600   NI        0.530082    0.145650    0.244063     0.004307
NI601   NI        0.520854    0.192244    0.243439     0.004307
PD602   PD        0.543109    0.155011    0.264344     0.005394
PD603   PD        0.539866    0.187115    0.229594     0.005394
NI604   NI        0.575366    0.158818    0.233394     0.004307
NI605   NI        0.598627    0.177336    0.276861     0.004307
PD606   PD        0.611010    0.160199    0.265353     0.005394
NI607   NI        0.614060    0.200524    0.238601     0.004307
NI608   NI        0.643961    0.161086    0.228321     0.004307
NI609   NI        0.643007    0.197173    0.275676     0.004307
NI610   NI        0.705876    0.151878    0.247393     0.004307
NI611   NI        0.678293    0.193894    0.226971     0.004307
NI612   NI        0.710135    0.195408    0.262023     0.004307
NI613   NI        0.099273    0.260931    0.267009     0.004307
NI614   NI        0.124157    0.245283    0.245748     0.004307
NI615   NI        0.134783    0.262557    0.230713     0.004307
NI616   NI        0.166056    0.224139    0.232899     0.004307
NI617   NI        0.137463    0.289400    0.260965     0.004307
NI618   NI        0.210831    0.224593    0.244513     0.004307
NI619   NI        0.199116    0.249491    0.210867     0.004307
PD620   PD        0.234367    0.223037    0.233048     0.005394
PD621   PD        0.230933    0.255891    0.266117     0.005394
PD622   PD        0.266766    0.221635    0.267079     0.005394
NI623   NI        0.285800    0.251518    0.215921     0.004307
NI624   NI        0.267842    0.211442    0.242544     0.004307
PD625   PD        0.310151    0.271139    0.251883     0.005394
NI626   NI        0.342354    0.210341    0.258918     0.004307
PD627   PD        0.335680    0.258274    0.230506     0.005394
PD628   PD        0.369057    0.221735    0.230549     0.005394
PD629   PD        0.349083    0.255996    0.274727     0.005394
PD630   PD        0.403264    0.222478    0.264662     0.005394
PD631   PD        0.416891    0.265348    0.236684     0.005394
PD632   PD        0.438645    0.221134    0.229231     0.005394
PD633   PD        0.426210    0.272304    0.250606     0.005394
PD634   PD        0.472174    0.224038    0.264372     0.005394
PD635   PD        0.487353    0.264790    0.230001     0.005394
PD636   PD        0.507182    0.222530    0.231645     0.005394
PD637   PD        0.508835    0.261623    0.267172     0.005394
PD638   PD        0.538226    0.226381    0.263190     0.005394
PD639   PD        0.540307    0.256193    0.228785     0.005394
NI640   NI        0.577640    0.214739    0.219634     0.004307
PD641   PD        0.589201    0.260762    0.290361     0.005394
NI642   NI        0.641436    0.222386    0.271260     0.004307
NI643   NI        0.626968    0.254953    0.239792     0.004307
NI644   NI        0.649365    0.224108    0.214948     0.004307
NI645   NI        0.670070    0.253540    0.246676     0.004307
NI646   NI        0.676716    0.230021    0.261809     0.004307
NI647   NI        0.691561    0.272886    0.223459     0.004307
NI648   NI        0.713894    0.227818    0.228298     0.004307
PD649   PD        0.713600    0.260251    0.265250     0.005394
NI650   NI        0.745961    0.225067    0.262259     0.004307
NI651   NI        0.746968    0.266220    0.231545     0.004307
NI652   NI        0.805851    0.229850    0.263482     0.004307
NI653   NI        0.093684    0.321168    0.270674     0.004307
PD654   PD        0.132975    0.295626    0.265400     0.005394
NI655   NI        0.130221    0.329428    0.233929     0.004307
NI656   NI        0.164827    0.291498    0.232091     0.004307
PD657   PD        0.166374    0.327254    0.264381     0.005394
NI658   NI        0.218374    0.298364    0.264120     0.004307
PD659   PD        0.202547    0.332008    0.234228     0.005394
NI660   NI        0.237556    0.304612    0.236819     0.004307
NI661   NI        0.237481    0.313703    0.249309     0.004307
PD662   PD        0.266379    0.290147    0.267003     0.005394
PD663   PD        0.264385    0.334919    0.216735     0.005394
PD664   PD        0.300145    0.289891    0.231769     0.005394
PD665   PD        0.297135    0.315397    0.246763     0.005394
PD666   PD        0.335453    0.292962    0.266222     0.005394
PD667   PD        0.333948    0.323158    0.229291     0.005394
PD668   PD        0.378455    0.277742    0.244482     0.005394
PD669   PD        0.362807    0.334732    0.260037     0.005394
PD670   PD        0.389108    0.294467    0.262850     0.005394
PD671   PD        0.403042    0.328798    0.231351     0.005394
PD672   PD        0.437755    0.296659    0.231097     0.005394
PD673   PD        0.454461    0.333748    0.265545     0.005394
PD674   PD        0.471168    0.290081    0.263066     0.005394
PD675   PD        0.484635    0.333240    0.228882     0.005394
PD676   PD        0.506228    0.292281    0.230090     0.005394
PD677   PD        0.510466    0.337290    0.282322     0.005394
PD678   PD        0.553692    0.280328    0.263060     0.005394
PD679   PD        0.552025    0.339433    0.230947     0.005394
PD680   PD        0.574602    0.296673    0.229558     0.005394
PD681   PD        0.586877    0.339301    0.262733     0.005394
NI682   NI        0.613770    0.285300    0.245248     0.004307
PD683   PD        0.618302    0.338668    0.229570     0.005394
NI684   NI        0.655614    0.306744    0.227677     0.004307
PD685   PD        0.655792    0.339510    0.255266     0.005394
PD686   PD        0.678712    0.296135    0.267832     0.005394
NI687   NI        0.679413    0.325724    0.228704     0.004307
NI688   NI        0.736599    0.282452    0.227115     0.004307
NI689   NI        0.710817    0.328733    0.252551     0.004307
NI690   NI        0.746496    0.294109    0.269380     0.004307
NI691   NI        0.750999    0.330434    0.238308     0.004307
NI692   NI        0.780164    0.323205    0.252135     0.004307
NI693   NI        0.054740    0.378122    0.246245     0.004307
NI694   NI        0.099876    0.367307    0.232346     0.004307
NI695   NI        0.090336    0.407041    0.263059     0.004307
NI696   NI        0.103833    0.362790    0.282255     0.004307
NI697   NI        0.129987    0.407353    0.226751     0.004307
NI698   NI        0.150833    0.372540    0.236338     0.004307
PD699   PD        0.168438    0.395859    0.265283     0.005394
NI700   NI        0.187716    0.361317    0.268818     0.004307
NI701   NI        0.178472    0.424779    0.225529     0.004307
PD702   PD        0.234139    0.367786    0.233270     0.005394
PD703   PD        0.223871    0.426593    0.251460     0.005394
PD704   PD        0.270184    0.357677    0.259485     0.005394
PD705   PD        0.273557    0.395041    0.230124     0.005394
PD706   PD        0.292401    0.352713    0.217551     0.005394
PD707   PD        0.306962    0.396382    0.265122     0.005394
PD708   PD        0.324126    0.344475    0.272418     0.005394
PD709   PD        0.330116    0.395877    0.210116     0.005394
PD710   PD        0.373648    0.366845    0.230020     0.005394
PD711   PD        0.376913    0.400463    0.265131     0.005394
PD712   PD        0.405447    0.362802    0.264658     0.005394
PD713   PD        0.411150    0.399403    0.230148     0.005394
PD714   PD        0.448066    0.366294    0.228411     0.005394
PD715   PD        0.440700    0.388162    0.277649     0.005394
PD716   PD        0.484950    0.370145    0.261305     0.005394
PD717   PD        0.474464    0.399844    0.232111     0.005394
PD718   PD        0.516690    0.367589    0.222989     0.005394
PD719   PD        0.516748    0.406471    0.261968     0.005394
PD720   PD        0.546185    0.366790    0.259815     0.005394
PD721   PD        0.549394    0.402152    0.226787     0.005394
PD722   PD        0.586111    0.373198    0.229524     0.005394
PD723   PD        0.574658    0.383755    0.256504     0.005394
PD724   PD        0.612542    0.358787    0.263644     0.005394
PD725   PD        0.618378    0.405946    0.232646     0.005394
NI726   NI        0.667421    0.376819    0.213094     0.004307
PD727   PD        0.641292    0.407288    0.271730     0.005394
PD728   PD        0.677145    0.363277    0.258150     0.005394
NI729   NI        0.693722    0.403384    0.233492     0.004307
NI730   NI        0.714008    0.362084    0.236523     0.004307
NI731   NI        0.726407    0.403365    0.268663     0.004307
NI732   NI        0.773819    0.369058    0.258385     0.004307
NI733   NI        0.749185    0.393175    0.224294     0.004307
NI734   NI        0.816689    0.382685    0.241834     0.004307
NI735   NI        0.797529    0.399525    0.228554     0.004307
NI736   NI        0.819391    0.358115    0.269748     0.004307
NI737   NI        0.066943    0.433191    0.272577     0.004307
NI738   NI        0.101936    0.438895    0.247061     0.004307
NI739   NI        0.092373    0.474717    0.264341     0.004307
NI740   NI        0.121606    0.443282    0.265793     0.004307
NI741   NI        0.110701    0.471968    0.212516     0.004307
NI742   NI        0.153226    0.446878    0.211806     0.004307
PD743   PD        0.158211    0.475637    0.264720     0.005394
PD744   PD        0.193662    0.438712    0.265944     0.005394
PD745   PD        0.191356    0.470957    0.230440     0.005394
PD746   PD        0.224462    0.436862    0.230484     0.005394
PD747   PD        0.228249    0.472505    0.263851     0.005394
PD748   PD        0.261888    0.439717    0.261642     0.005394
PD749   PD        0.271578    0.479251    0.225406     0.005394
PD750   PD        0.307124    0.432887    0.230216     0.005394
PD751   PD        0.308828    0.469172    0.268858     0.005394
PD752   PD        0.344963    0.437319    0.265021     0.005394
PD753   PD        0.340721    0.468452    0.229854     0.005394
PD754   PD        0.377368    0.434764    0.231452     0.005394
PD755   PD        0.384727    0.459245    0.250301     0.005394
PD756   PD        0.410886    0.433500    0.262204     0.005394
PD757   PD        0.410194    0.467265    0.229021     0.005394
PD758   PD        0.443961    0.434232    0.227542     0.005394
PD759   PD        0.442723    0.488830    0.270021     0.005394
PD760   PD        0.479891    0.435669    0.260879     0.005394
PD761   PD        0.477980    0.468417    0.225405     0.005394
PD762   PD        0.512311    0.433763    0.222821     0.005394
PD763   PD        0.521290    0.460496    0.266798     0.005394
PD764   PD        0.546981    0.437381    0.258266     0.005394
PD765   PD        0.547470    0.472856    0.224829     0.005394
PD766   PD        0.571529    0.440130    0.241427     0.005394
PD767   PD        0.585015    0.465769    0.251914     0.005394
PD768   PD        0.608466    0.442109    0.269870     0.005394
PD769   PD        0.610872    0.487844    0.217464     0.005394
PD770   PD        0.645691    0.430981    0.245040     0.005394
PD771   PD        0.654586    0.472383    0.268780     0.005394
PD772   PD        0.689584    0.436189    0.266748     0.005394
NI773   NI        0.704218    0.481213    0.224327     0.004307
NI774   NI        0.726046    0.442656    0.233336     0.004307
PD775   PD        0.713527    0.474742    0.270937     0.005394
NI776   NI        0.760452    0.438630    0.268323     0.004307
NI777   NI        0.778973    0.453399    0.234841     0.004307
NI778   NI        0.786114    0.446878    0.229839     0.004307
NI779   NI        0.815839    0.481753    0.248307     0.004307
NI780   NI        0.814213    0.436805    0.266251     0.004307
NI781   NI        0.067586    0.507963    0.249020     0.004307
NI782   NI        0.091472    0.510034    0.231533     0.004307
NI783   NI        0.093506    0.545236    0.265043     0.004307
NI784   NI        0.127871    0.510393    0.264060     0.004307
NI785   NI        0.111268    0.552574    0.231678     0.004307
NI786   NI        0.157370    0.515107    0.214122     0.004307
PD787   PD        0.161357    0.542259    0.265778     0.005394
NI788   NI        0.166307    0.527464    0.261064     0.004307
NI789   NI        0.187104    0.568042    0.237185     0.004307
NI790   NI        0.235589    0.519053    0.227682     0.004307
PD791   PD        0.236725    0.534541    0.274298     0.005394
PD792   PD        0.265129    0.496499    0.270227     0.005394
PD793   PD        0.258830    0.524947    0.234947     0.005394
PD794   PD        0.306378    0.501582    0.230725     0.005394
PD795   PD        0.313297    0.549812    0.288379     0.005394
PD796   PD        0.341882    0.509296    0.276341     0.005394
NI797   NI        0.337519    0.541637    0.214896     0.004307
PD798   PD        0.376679    0.501423    0.229138     0.005394
PD799   PD        0.374801    0.534249    0.268289     0.005394
PD800   PD        0.409118    0.502442    0.263954     0.005394
PD801   PD        0.406295    0.534374    0.226262     0.005394
PD802   PD        0.442546    0.501813    0.226257     0.005394
PD803   PD        0.439444    0.534666    0.259528     0.005394
PD804   PD        0.478116    0.505602    0.258594     0.005394
PD805   PD        0.475673    0.536946    0.226455     0.005394
PD806   PD        0.510609    0.504534    0.225328     0.005394
PD807   PD        0.506475    0.534339    0.262781     0.005394
PD808   PD        0.546406    0.500488    0.259904     0.005394
PD809   PD        0.546034    0.535968    0.225126     0.005394
PD810   PD        0.579748    0.503507    0.224587     0.005394
PD811   PD        0.581621    0.532139    0.256510     0.005394
PD812   PD        0.611415    0.508784    0.260921     0.005394
PD813   PD        0.614107    0.538639    0.224146     0.005394
PD814   PD        0.651372    0.505926    0.219685     0.005394
PD815   PD        0.649542    0.537195    0.256832     0.005394
NI816   NI        0.681350    0.511870    0.264246     0.004307
NI817   NI        0.682345    0.537636    0.223552     0.004307
NI818   NI        0.712025    0.506699    0.234345     0.004307
NI819   NI        0.710955    0.540463    0.269390     0.004307
PD820   PD        0.746121    0.507065    0.269461     0.005394
NI821   NI        0.745199    0.540839    0.234641     0.004307
NI822   NI        0.776698    0.504889    0.232401     0.004307
NI823   NI        0.809703    0.530428    0.253522     0.004307
NI824   NI        0.817424    0.530368    0.235705     0.004307
NI825   NI        0.108056    0.605268    0.268133     0.004307
NI826   NI        0.135632    0.569895    0.288115     0.004307
NI827   NI        0.143840    0.610787    0.234589     0.004307
NI828   NI        0.161016    0.557773    0.223351     0.004307
NI829   NI        0.170561    0.611505    0.248105     0.004307
NI830   NI        0.174270    0.563718    0.262876     0.004307
NI831   NI        0.193411    0.610247    0.230243     0.004307
PD832   PD        0.235710    0.567284    0.236929     0.005394
PD833   PD        0.234787    0.608626    0.264577     0.005394
PD834   PD        0.272610    0.559667    0.267807     0.005394
NI835   NI        0.270135    0.620070    0.218435     0.004307
PD836   PD        0.278300    0.562724    0.217538     0.005394
NI837   NI        0.286832    0.626131    0.259580     0.004307
PD838   PD        0.326051    0.582550    0.276471     0.005394
NI839   NI        0.315287    0.609232    0.204239     0.004307
PD840   PD        0.372848    0.567666    0.232320     0.005394
PD841   PD        0.370582    0.601374    0.263494     0.005394
PD842   PD        0.412444    0.582068    0.250382     0.005394
PD843   PD        0.404555    0.623690    0.239489     0.005394
PD844   PD        0.437626    0.598713    0.216143     0.005394
PD845   PD        0.438824    0.617471    0.270236     0.005394
PD846   PD        0.472154    0.581533    0.273090     0.005394
NI847   NI        0.475756    0.626154    0.214632     0.004307
PD848   PD        0.495294    0.569782    0.232782     0.005394
PD849   PD        0.512370    0.605363    0.278518     0.005394
PD850   PD        0.543912    0.566713    0.261239     0.005394
PD851   PD        0.556634    0.625820    0.226133     0.005394
PD852   PD        0.578150    0.571358    0.226882     0.005394
PD853   PD        0.578173    0.602743    0.263516     0.005394
PD854   PD        0.614468    0.572633    0.258059     0.005394
NI855   NI        0.606578    0.610035    0.234765     0.004307
NI856   NI        0.651581    0.571254    0.242653     0.004307
NI857   NI        0.638378    0.618260    0.245937     0.004307
NI858   NI        0.685408    0.566125    0.262395     0.004307
NI859   NI        0.679176    0.611544    0.230409     0.004307
NI860   NI        0.729432    0.571996    0.250118     0.004307
NI861   NI        0.725103    0.635983    0.263500     0.004307
NI862   NI        0.760560    0.584516    0.292173     0.004307
NI863   NI        0.752266    0.606874    0.234767     0.004307
NI864   NI        0.785413    0.605196    0.268979     0.004307
NI865   NI        0.127701    0.647018    0.269493     0.004307
NI866   NI        0.158319    0.647329    0.235524     0.004307
NI867   NI        0.163011    0.680699    0.270868     0.004307
NI868   NI        0.199930    0.640959    0.260786     0.004307
NI869   NI        0.195925    0.675227    0.226185     0.004307
NI870   NI        0.230571    0.636859    0.242656     0.004307
NI871   NI        0.255107    0.707483    0.255851     0.004307
NI872   NI        0.256896    0.654834    0.280453     0.004307
NI873   NI        0.261645    0.696989    0.233996     0.004307
NI874   NI        0.301263    0.632404    0.232530     0.004307
NI875   NI        0.298128    0.680649    0.263184     0.004307
PD876   PD        0.336476    0.636488    0.265231     0.005394
NI877   NI        0.314628    0.687791    0.239859     0.004307
PD878   PD        0.372432    0.636261    0.233581     0.005394
NI879   NI        0.358839    0.690836    0.257651     0.004307
PD880   PD        0.414154    0.660541    0.268297     0.005394
NI881   NI        0.397133    0.679305    0.229206     0.004307
PD882   PD        0.435700    0.659614    0.224480     0.005394
NI883   NI        0.457182    0.682017    0.259323     0.004307
PD884   PD        0.493763    0.655105    0.272810     0.005394
PD885   PD        0.473061    0.672091    0.229529     0.005394
PD886   PD        0.514304    0.632669    0.241702     0.005394
PD887   PD        0.506527    0.670022    0.267624     0.005394
NI888   NI        0.563521    0.648558    0.266273     0.004307
PD889   PD        0.541694    0.672829    0.231826     0.005394
NI890   NI        0.592179    0.657556    0.227692     0.004307
NI891   NI        0.591246    0.688960    0.266371     0.004307
NI892   NI        0.620551    0.657065    0.267507     0.004307
NI893   NI        0.626065    0.672429    0.218186     0.004307
NI894   NI        0.648126    0.635088    0.237632     0.004307
NI895   NI        0.665779    0.671332    0.268233     0.004307
NI896   NI        0.682323    0.635520    0.270719     0.004307
NI897   NI        0.708938    0.677743    0.213908     0.004307
NI898   NI        0.715199    0.635912    0.236048     0.004307
NI899   NI        0.728034    0.677890    0.255267     0.004307
NI900   NI        0.749503    0.641749    0.266947     0.004307
NI901   NI        0.177792    0.715769    0.299232     0.004307
NI902   NI        0.259820    0.727850    0.234033     0.004307
NI903   NI        0.229080    0.727844    0.249476     0.004307
NI904   NI        0.252547    0.702545    0.282705     0.004307
NI905   NI        0.270630    0.741796    0.231580     0.004307
NI906   NI        0.304393    0.741297    0.206718     0.004307
NI907   NI        0.295872    0.749144    0.261838     0.004307
NI908   NI        0.335614    0.720130    0.267706     0.004307
NI909   NI        0.353314    0.751933    0.227319     0.004307
NI910   NI        0.371560    0.718642    0.240116     0.004307
NI911   NI        0.372551    0.744017    0.267976     0.004307
NI912   NI        0.414501    0.715640    0.256635     0.004307
NI913   NI        0.400205    0.759206    0.235464     0.004307
PD914   PD        0.437947    0.705621    0.232996     0.005394
NI915   NI        0.435183    0.757367    0.271491     0.004307
PD916   PD        0.473985    0.702283    0.268214     0.005394
NI917   NI        0.466890    0.763845    0.237439     0.004307
NI918   NI        0.510346    0.722876    0.205360     0.004307
NI919   NI        0.516758    0.765222    0.281328     0.004307
NI920   NI        0.536463    0.707901    0.262740     0.004307
NI921   NI        0.528888    0.753815    0.232015     0.004307
NI922   NI        0.588211    0.726256    0.236219     0.004307
NI923   NI        0.578625    0.756758    0.272907     0.004307
NI924   NI        0.625960    0.712641    0.261357     0.004307
NI925   NI        0.608668    0.743312    0.243050     0.004307
NI926   NI        0.647517    0.702711    0.234981     0.004307
NI927   NI        0.649213    0.757087    0.275757     0.004307
NI928   NI        0.671576    0.713536    0.276379     0.004307
NI929   NI        0.264559    0.802026    0.256491     0.004307
NI930   NI        0.344464    0.787696    0.268078     0.004307
NI931   NI        0.371953    0.776278    0.232643     0.004307
NI932   NI        0.373438    0.819533    0.270348     0.004307
NI933   NI        0.400670    0.791253    0.267419     0.004307
NI934   NI        0.438457    0.788745    0.238468     0.004307
NI935   NI        0.441298    0.820635    0.271648     0.004307
NI936   NI        0.474938    0.776631    0.267304     0.004307
NI937   NI        0.513329    0.798101    0.240447     0.004307
NI938   NI        0.525213    0.819063    0.283518     0.004307
NI939   NI        0.543048    0.773644    0.266676     0.004307
NI940   NI        0.610399    0.772786    0.250110     0.004307
PD941   PD        0.303652    0.052524    0.335256     0.005394
PD942   PD        0.337829    0.052245    0.301937     0.005394
NI943   NI        0.359273    0.050782    0.312414     0.004307
PD944   PD        0.408126    0.051711    0.304061     0.005394
NI945   NI        0.446681    0.083457    0.338865     0.004307
PD946   PD        0.476451    0.053028    0.304093     0.005394
NI947   NI        0.507945    0.052194    0.337736     0.004307
NI948   NI        0.547448    0.057907    0.300710     0.004307
NI949   NI        0.603341    0.055790    0.316882     0.004307
PD950   PD        0.199429    0.119619    0.302020     0.005394
PD951   PD        0.233099    0.121656    0.334447     0.005394
PD952   PD        0.269531    0.086146    0.335273     0.005394
PD953   PD        0.268924    0.119314    0.301412     0.005394
PD954   PD        0.304375    0.087136    0.302397     0.005394
PD955   PD        0.302777    0.121687    0.335709     0.005394
PD956   PD        0.337322    0.086828    0.336008     0.005394
PD957   PD        0.338074    0.121101    0.300899     0.005394
PD958   PD        0.370674    0.086573    0.301672     0.005394
PD959   PD        0.370844    0.121828    0.337098     0.005394
NI960   NI        0.395275    0.074301    0.314325     0.004307
PD961   PD        0.406732    0.119908    0.300445     0.005394
PD962   PD        0.439831    0.085906    0.303372     0.005394
PD963   PD        0.440226    0.121624    0.336433     0.005394
PD964   PD        0.474812    0.087017    0.337717     0.005394
PD965   PD        0.473417    0.119760    0.302058     0.005394
PD966   PD        0.509349    0.088402    0.303020     0.005394
PD967   PD        0.542391    0.123329    0.302502     0.005394
NI968   NI        0.540880    0.107137    0.338661     0.004307
NI969   NI        0.561900    0.115708    0.286195     0.004307
NI970   NI        0.577955    0.093036    0.301581     0.004307
PD971   PD        0.578130    0.129374    0.335937     0.005394
NI972   NI        0.611226    0.093405    0.337393     0.004307
NI973   NI        0.622391    0.134402    0.276431     0.004307
NI974   NI        0.669500    0.127791    0.332300     0.004307
NI975   NI        0.699922    0.107174    0.318824     0.004307
NI976   NI        0.119361    0.208075    0.310521     0.004307
NI977   NI        0.164861    0.156227    0.302266     0.004307
PD978   PD        0.164466    0.187844    0.334892     0.005394
PD979   PD        0.200411    0.154624    0.335098     0.005394
PD980   PD        0.200508    0.189998    0.300582     0.005394
PD981   PD        0.234816    0.153530    0.300833     0.005394
PD982   PD        0.233865    0.189560    0.335002     0.005394
PD983   PD        0.268923    0.155977    0.334324     0.005394
PD984   PD        0.267181    0.188085    0.301279     0.005394
PD985   PD        0.301962    0.155048    0.300925     0.005394
PD986   PD        0.303310    0.189014    0.335020     0.005394
PD987   PD        0.337230    0.154568    0.334938     0.005394
PD988   PD        0.336776    0.187016    0.299647     0.005394
PD989   PD        0.371222    0.154628    0.301137     0.005394
PD990   PD        0.371282    0.188626    0.335987     0.005394
PD991   PD        0.406470    0.155025    0.334423     0.005394
NI992   NI        0.427517    0.177968    0.308894     0.004307
PD993   PD        0.439299    0.154589    0.300801     0.005394
PD994   PD        0.438120    0.189528    0.333369     0.005394
PD995   PD        0.473655    0.157036    0.333583     0.005394
PD996   PD        0.472692    0.190215    0.299516     0.005394
PD997   PD        0.507907    0.121517    0.267605     0.005394
NI998   NI        0.507240    0.176768    0.305253     0.004307
PD999   PD        0.541806    0.156623    0.335297     0.005394
NI1000   NI        0.556942    0.198970    0.292449     0.004307
PD1001   PD        0.576261    0.155572    0.299111     0.005394
PD1002   PD        0.577357    0.180169    0.336584     0.005394
PD1003   PD        0.612255    0.161342    0.333184     0.005394
PD1004   PD        0.609793    0.195442    0.297079     0.005394
NI1005   NI        0.645438    0.152797    0.298854     0.004307
NI1006   NI        0.643319    0.196098    0.333302     0.004307
NI1007   NI        0.684574    0.148742    0.327674     0.004307
NI1008   NI        0.677235    0.197871    0.310992     0.004307
NI1009   NI        0.720740    0.139873    0.297194     0.004307
NI1010   NI        0.712518    0.195048    0.336202     0.004307
NI1011   NI        0.723128    0.188265    0.306346     0.004307
NI1012   NI        0.097733    0.258471    0.334399     0.004307
NI1013   NI        0.141770    0.240121    0.329370     0.004307
NI1014   NI        0.138476    0.279128    0.303380     0.004307
NI1015   NI        0.151262    0.235964    0.284029     0.004307
PD1016   PD        0.163440    0.255933    0.335189     0.005394
PD1017   PD        0.200664    0.223887    0.334941     0.005394
PD1018   PD        0.199328    0.256669    0.299382     0.005394
PD1019   PD        0.234292    0.221819    0.301562     0.005394
PD1020   PD        0.238488    0.253926    0.314936     0.005394
PD1021   PD        0.268269    0.224086    0.335137     0.005394
PD1022   PD        0.268744    0.256309    0.300303     0.005394
NI1023   NI        0.305456    0.232661    0.281542     0.004307
PD1024   PD        0.302309    0.257299    0.334636     0.005394
PD1025   PD        0.336781    0.222893    0.333614     0.005394
PD1026   PD        0.335617    0.257670    0.298385     0.005394
PD1027   PD        0.369152    0.222545    0.298820     0.005394
PD1028   PD        0.384610    0.281153    0.330269     0.005394
PD1029   PD        0.392422    0.209307    0.327644     0.005394
PD1030   PD        0.394502    0.263910    0.288110     0.005394
PD1031   PD        0.471400    0.235856    0.309520     0.005394
PD1032   PD        0.437961    0.256774    0.333189     0.005394
PD1033   PD        0.472359    0.224556    0.333238     0.005394
PD1034   PD        0.472258    0.258242    0.299011     0.005394
PD1035   PD        0.505774    0.225395    0.299698     0.005394
PD1036   PD        0.506132    0.258215    0.332028     0.005394
PD1037   PD        0.561991    0.224296    0.345685     0.005394
PD1038   PD        0.541311    0.259349    0.297728     0.005394
PD1039   PD        0.574455    0.226746    0.299446     0.005394
PD1040   PD        0.582376    0.257470    0.317161     0.005394
NI1041   NI        0.624061    0.204385    0.340180     0.004307
PD1042   PD        0.635059    0.281055    0.282418     0.005394
NI1043   NI        0.659804    0.225360    0.310350     0.004307
PD1044   PD        0.661632    0.277336    0.331419     0.005394
NI1045   NI        0.688842    0.235630    0.338840     0.004307
NI1046   NI        0.698115    0.267634    0.304819     0.004307
NI1047   NI        0.714760    0.223961    0.298896     0.004307
NI1048   NI        0.730301    0.261391    0.340942     0.004307
NI1049   NI        0.773087    0.237882    0.338382     0.004307
NI1050   NI        0.744628    0.255348    0.300835     0.004307
NI1051   NI        0.773770    0.251071    0.337504     0.004307
NI1052   NI        0.057595    0.298287    0.370631     0.004307
NI1053   NI        0.050254    0.343832    0.287822     0.004307
NI1054   NI        0.091706    0.303476    0.291920     0.004307
NI1055   NI        0.094610    0.347140    0.351106     0.004307
PD1056   PD        0.132500    0.292823    0.336112     0.005394
PD1057   PD        0.132301    0.326797    0.300812     0.005394
PD1058   PD        0.166523    0.291127    0.301024     0.005394
NI1059   NI        0.162732    0.333811    0.335483     0.004307
PD1060   PD        0.191913    0.282360    0.326747     0.005394
PD1061   PD        0.198169    0.323901    0.298891     0.005394
PD1062   PD        0.233394    0.291599    0.302158     0.005394
PD1063   PD        0.229098    0.337366    0.330649     0.005394
PD1064   PD        0.269373    0.312383    0.327218     0.005394
PD1065   PD        0.266959    0.338458    0.277559     0.005394
PD1066   PD        0.316107    0.300561    0.311503     0.005394
PD1067   PD        0.303239    0.325836    0.332753     0.005394
PD1068   PD        0.336828    0.291449    0.330981     0.005394
PD1069   PD        0.333842    0.325322    0.298801     0.005394
PD1070   PD        0.365659    0.299895    0.301916     0.005394
PD1071   PD        0.367484    0.351851    0.319289     0.005394
PD1072   PD        0.404547    0.292077    0.332270     0.005394
PD1073   PD        0.403046    0.327672    0.298111     0.005394
PD1074   PD        0.413149    0.301244    0.302626     0.005394
PD1075   PD        0.438941    0.326466    0.332409     0.005394
PD1076   PD        0.472617    0.292797    0.332825     0.005394
PD1077   PD        0.472890    0.326710    0.297757     0.005394
PD1078   PD        0.509297    0.301254    0.300626     0.005394
PD1079   PD        0.507468    0.327059    0.330303     0.005394
PD1080   PD        0.535623    0.298131    0.341257     0.005394
PD1081   PD        0.561838    0.351151    0.302524     0.005394
PD1082   PD        0.580653    0.285989    0.301178     0.005394
PD1083   PD        0.579394    0.322328    0.330769     0.005394
NI1084   NI        0.619339    0.299223    0.325033     0.004307
PD1085   PD        0.613801    0.332707    0.299295     0.005394
PD1086   PD        0.661537    0.302003    0.312974     0.005394
PD1087   PD        0.642058    0.341259    0.334605     0.005394
PD1088   PD        0.701933    0.299233    0.338181     0.005394
PD1089   PD        0.660282    0.319121    0.298048     0.005394
NI1090   NI        0.707388    0.306672    0.299222     0.004307
PD1091   PD        0.715125    0.342843    0.337736     0.005394
NI1092   NI        0.766481    0.300000    0.341904     0.004307
NI1093   NI        0.774489    0.310393    0.298384     0.004307
NI1094   NI        0.789377    0.300173    0.308159     0.004307
NI1095   NI        0.776692    0.335276    0.335400     0.004307
NI1096   NI        0.808909    0.288324    0.321678     0.004307
NI1097   NI        0.832415    0.317607    0.294177     0.004307
NI1098   NI        0.057403    0.370210    0.328532     0.004307
NI1099   NI        0.054052    0.409681    0.302162     0.004307
NI1100   NI        0.085700    0.374370    0.299425     0.004307
NI1101   NI        0.078578    0.397704    0.305970     0.004307
NI1102   NI        0.123399    0.370869    0.329124     0.004307
PD1103   PD        0.123183    0.407877    0.299581     0.005394
PD1104   PD        0.169016    0.360891    0.298104     0.005394
PD1105   PD        0.159169    0.404132    0.330795     0.005394
PD1106   PD        0.201715    0.359824    0.330296     0.005394
PD1107   PD        0.197506    0.414547    0.291868     0.005394
PD1108   PD        0.232803    0.357966    0.305182     0.005394
PD1109   PD        0.237472    0.395249    0.326958     0.005394
PD1110   PD        0.269943    0.357968    0.322017     0.005394
PD1111   PD        0.276199    0.399144    0.302199     0.005394
PD1112   PD        0.301610    0.360118    0.300202     0.005394
PD1113   PD        0.294753    0.390608    0.334707     0.005394
PD1114   PD        0.335674    0.360631    0.333522     0.005394
PD1115   PD        0.336549    0.397177    0.300959     0.005394
PD1116   PD        0.360777    0.367321    0.294825     0.005394
PD1117   PD        0.371499    0.394954    0.332587     0.005394
PD1118   PD        0.405159    0.367880    0.299696     0.005394
PD1119   PD        0.403370    0.396557    0.301333     0.005394
PD1120   PD        0.437773    0.362526    0.300898     0.005394
PD1121   PD        0.435213    0.395686    0.323191     0.005394
PD1122   PD        0.473213    0.360284    0.332502     0.005394
PD1123   PD        0.481766    0.403995    0.296675     0.005394
PD1124   PD        0.522975    0.384625    0.286331     0.005394
PD1125   PD        0.501534    0.398512    0.337521     0.005394
PD1126   PD        0.556420    0.368994    0.347395     0.005394
PD1127   PD        0.557434    0.399826    0.310570     0.005394
PD1128   PD        0.584972    0.370743    0.300479     0.005394
PD1129   PD        0.589641    0.402719    0.338319     0.005394
PD1130   PD        0.621816    0.365515    0.332932     0.005394
PD1131   PD        0.623091    0.426505    0.313540     0.005394
PD1132   PD        0.649278    0.365722    0.293444     0.005394
PD1133   PD        0.655640    0.401217    0.331107     0.005394
NI1134   NI        0.694002    0.373944    0.320100     0.004307
PD1135   PD        0.683444    0.397867    0.291201     0.005394
NI1136   NI        0.728236    0.369379    0.302967     0.004307
PD1137   PD        0.699371    0.387801    0.339667     0.005394
NI1138   NI        0.769739    0.348651    0.342327     0.004307
NI1139   NI        0.759374    0.405858    0.301969     0.004307
NI1140   NI        0.790504    0.370886    0.306821     0.004307
NI1141   NI        0.796078    0.416249    0.321933     0.004307
NI1142   NI        0.815722    0.367372    0.347570     0.004307
NI1143   NI        0.813597    0.405693    0.306058     0.004307
NI1144   NI        0.046222    0.417986    0.352745     0.004307
NI1145   NI        0.060110    0.494134    0.296080     0.004307
NI1146   NI        0.101737    0.421571    0.306898     0.004307
NI1147   NI        0.093138    0.477793    0.327033     0.004307
PD1148   PD        0.124353    0.440853    0.333524     0.005394
PD1149   PD        0.124005    0.475252    0.299843     0.005394
PD1150   PD        0.158094    0.441384    0.297844     0.005394
PD1151   PD        0.157650    0.475025    0.332655     0.005394
PD1152   PD        0.192237    0.439535    0.330928     0.005394
PD1153   PD        0.202762    0.462393    0.296668     0.005394
PD1154   PD        0.230109    0.423194    0.292029     0.005394
PD1155   PD        0.241666    0.461440    0.335669     0.005394
PD1156   PD        0.260771    0.438321    0.331344     0.005394
PD1157   PD        0.273618    0.465867    0.302196     0.005394
PD1158   PD        0.304160    0.434411    0.312122     0.005394
PD1159   PD        0.298580    0.474842    0.329450     0.005394
PD1160   PD        0.330262    0.438784    0.329934     0.005394
PD1161   PD        0.332022    0.472895    0.296849     0.005394
PD1162   PD        0.367108    0.415974    0.281257     0.005394
PD1163   PD        0.375983    0.475410    0.317983     0.005394
PD1164   PD        0.404354    0.434582    0.317703     0.005394
PD1165   PD        0.396467    0.474416    0.296005     0.005394
PD1166   PD        0.444947    0.434362    0.296633     0.005394
PD1167   PD        0.451953    0.467369    0.330153     0.005394
PD1168   PD        0.479816    0.441654    0.330632     0.005394
PD1169   PD        0.480572    0.470278    0.293913     0.005394
PD1170   PD        0.517222    0.431757    0.303489     0.005394
PD1171   PD        0.514773    0.472283    0.328114     0.005394
PD1172   PD        0.556580    0.437678    0.340631     0.005394
PD1173   PD        0.548486    0.468581    0.310990     0.005394
PD1174   PD        0.599535    0.453675    0.298914     0.005394
PD1175   PD        0.557608    0.465745    0.351265     0.005394
PD1176   PD        0.623988    0.436928    0.335176     0.005394
PD1177   PD        0.622128    0.472053    0.302947     0.005394
PD1178   PD        0.649270    0.432772    0.293354     0.005394
PD1179   PD        0.655046    0.468549    0.338243     0.005394
PD1180   PD        0.689109    0.432960    0.337046     0.005394
PD1181   PD        0.684422    0.463279    0.302728     0.005394
PD1182   PD        0.719181    0.429726    0.287557     0.005394
PD1183   PD        0.724201    0.465204    0.318693     0.005394
PD1184   PD        0.758916    0.439619    0.336495     0.005394
NI1185   NI        0.751813    0.467452    0.297181     0.004307
NI1186   NI        0.793744    0.437664    0.303815     0.004307
NI1187   NI        0.776327    0.473391    0.340795     0.004307
NI1188   NI        0.830189    0.444902    0.316134     0.004307
NI1189   NI        0.832990    0.452258    0.306647     0.004307
NI1190   NI        0.055104    0.483345    0.368376     0.004307
NI1191   NI        0.058131    0.543318    0.297841     0.004307
NI1192   NI        0.092043    0.510863    0.298526     0.004307
NI1193   NI        0.092747    0.544366    0.337065     0.004307
PD1194   PD        0.127214    0.509846    0.332979     0.005394
NI1195   NI        0.125155    0.544320    0.300715     0.004307
NI1196   NI        0.147655    0.517879    0.292539     0.004307
PD1197   PD        0.160546    0.543575    0.332305     0.005394
PD1198   PD        0.208264    0.516111    0.352607     0.005394
PD1199   PD        0.196379    0.542757    0.298410     0.005394
PD1200   PD        0.228186    0.506621    0.297918     0.005394
PD1201   PD        0.231706    0.540079    0.332591     0.005394
PD1202   PD        0.263337    0.505004    0.332088     0.005394
PD1203   PD        0.264051    0.540037    0.297131     0.005394
PD1204   PD        0.299396    0.507031    0.299991     0.005394
PD1205   PD        0.298593    0.542826    0.330977     0.005394
PD1206   PD        0.331465    0.508368    0.337472     0.005394
PD1207   PD        0.342876    0.515239    0.293456     0.005394
PD1208   PD        0.380904    0.498076    0.303856     0.005394
PD1209   PD        0.359501    0.545973    0.340600     0.005394
PD1210   PD        0.411977    0.496371    0.341187     0.005394
PD1211   PD        0.409227    0.536509    0.312506     0.005394
PD1212   PD        0.448798    0.498141    0.311458     0.005394
PD1213   PD        0.434353    0.534848    0.327942     0.005394
PD1214   PD        0.490617    0.505646    0.333078     0.005394
PD1215   PD        0.458665    0.530024    0.296612     0.005394
PD1216   PD        0.517298    0.499019    0.292991     0.005394
PD1217   PD        0.510556    0.546590    0.339103     0.005394
PD1218   PD        0.535491    0.507072    0.336681     0.005394
PD1219   PD        0.540980    0.535968    0.278769     0.005394
PD1220   PD        0.596354    0.520794    0.301306     0.005394
PD1221   PD        0.563827    0.544877    0.320022     0.005394
PD1222   PD        0.616818    0.505876    0.341108     0.005394
PD1223   PD        0.605969    0.533675    0.302072     0.005394
PD1224   PD        0.651709    0.501670    0.289213     0.005394
PD1225   PD        0.678084    0.560779    0.331393     0.005394
PD1226   PD        0.693391    0.487999    0.342039     0.005394
PD1227   PD        0.677825    0.534348    0.306299     0.005394
PD1228   PD        0.712872    0.508281    0.303104     0.005394
NI1229   NI        0.740571    0.534384    0.336871     0.004307
NI1230   NI        0.750557    0.519986    0.331190     0.004307
NI1231   NI        0.748780    0.542461    0.301047     0.004307
NI1232   NI        0.793053    0.521273    0.309589     0.004307
NI1233   NI        0.817530    0.571351    0.334894     0.004307
NI1234   NI        0.814672    0.501055    0.339578     0.004307
NI1235   NI        0.845574    0.551814    0.279537     0.004307
NI1236   NI        0.047556    0.584399    0.323943     0.004307
NI1237   NI        0.090654    0.576920    0.303817     0.004307
NI1238   NI        0.080762    0.605723    0.343306     0.004307
PD1239   PD        0.128315    0.576775    0.334164     0.005394
NI1240   NI        0.121376    0.600388    0.315586     0.004307
PD1241   PD        0.160959    0.576581    0.298650     0.005394
PD1242   PD        0.163103    0.609777    0.332176     0.005394
PD1243   PD        0.197339    0.575354    0.333761     0.005394
PD1244   PD        0.198186    0.609200    0.299225     0.005394
PD1245   PD        0.232943    0.575913    0.299361     0.005394
PD1246   PD        0.240944    0.615253    0.347806     0.005394
PD1247   PD        0.265621    0.575904    0.332440     0.005394
PD1248   PD        0.267139    0.610186    0.299718     0.005394
PD1249   PD        0.300656    0.577967    0.301249     0.005394
PD1250   PD        0.287156    0.628024    0.327964     0.005394
PD1251   PD        0.331536    0.579137    0.322117     0.005394
PD1252   PD        0.356280    0.612183    0.302692     0.005394
PD1253   PD        0.372753    0.567582    0.298299     0.005394
PD1254   PD        0.366442    0.634851    0.344250     0.005394
PD1255   PD        0.401631    0.573653    0.338284     0.005394
PD1256   PD        0.404778    0.599114    0.296690     0.005394
PD1257   PD        0.436377    0.570623    0.291655     0.005394
PD1258   PD        0.437669    0.621248    0.339588     0.005394
PD1259   PD        0.471042    0.572745    0.342840     0.005394
PD1260   PD        0.485665    0.614104    0.275734     0.005394
PD1261   PD        0.515241    0.591687    0.291167     0.005394
PD1262   PD        0.518386    0.602927    0.336311     0.005394
PD1263   PD        0.563818    0.588623    0.341011     0.005394
PD1264   PD        0.557504    0.609336    0.296175     0.005394
PD1265   PD        0.592674    0.578753    0.302929     0.005394
PD1266   PD        0.579346    0.630526    0.329867     0.005394
PD1267   PD        0.600099    0.575476    0.323486     0.005394
PD1268   PD        0.609276    0.634081    0.332632     0.005394
PD1269   PD        0.645080    0.568145    0.297607     0.005394
PD1270   PD        0.641432    0.603641    0.329925     0.005394
PD1271   PD        0.684370    0.569973    0.325028     0.005394
NI1272   NI        0.685559    0.611445    0.308258     0.004307
NI1273   NI        0.703106    0.587324    0.301821     0.004307
NI1274   NI        0.720138    0.610537    0.341490     0.004307
NI1275   NI        0.754427    0.580057    0.332215     0.004307
NI1276   NI        0.733683    0.610663    0.303019     0.004307
NI1277   NI        0.803082    0.564648    0.288089     0.004307
NI1278   NI        0.795981    0.602464    0.316641     0.004307
NI1279   NI        0.813247    0.581787    0.332998     0.004307
NI1280   NI        0.107589    0.637060    0.319076     0.004307
NI1281   NI        0.136018    0.675768    0.310090     0.004307
NI1282   NI        0.157209    0.640615    0.322534     0.004307
NI1283   NI        0.168733    0.679278    0.337818     0.004307
PD1284   PD        0.199993    0.642660    0.335579     0.005394
NI1285   NI        0.205069    0.678001    0.304457     0.004307
PD1286   PD        0.230830    0.644760    0.296562     0.005394
PD1287   PD        0.229032    0.679058    0.329559     0.005394
PD1288   PD        0.263856    0.646034    0.332071     0.005394
PD1289   PD        0.264520    0.679279    0.297803     0.005394
PD1290   PD        0.299618    0.650523    0.299263     0.005394
PD1291   PD        0.297554    0.680393    0.331195     0.005394
PD1292   PD        0.331610    0.646229    0.326552     0.005394
PD1293   PD        0.332716    0.685174    0.299508     0.005394
PD1294   PD        0.378997    0.630031    0.278806     0.005394
NI1295   NI        0.364414    0.688584    0.335368     0.004307
PD1296   PD        0.407621    0.658466    0.352107     0.005394
PD1297   PD        0.406379    0.669271    0.302337     0.005394
PD1298   PD        0.457639    0.643955    0.303181     0.005394
PD1299   PD        0.428589    0.668186    0.332778     0.005394
PD1300   PD        0.473425    0.657330    0.344970     0.005394
PD1301   PD        0.473631    0.675281    0.304789     0.005394
PD1302   PD        0.504759    0.639387    0.310372     0.005394
PD1303   PD        0.507648    0.671025    0.335105     0.005394
PD1304   PD        0.545157    0.633568    0.336182     0.005394
NI1305   NI        0.552485    0.677858    0.292496     0.004307
PD1306   PD        0.585179    0.644748    0.285411     0.005394
PD1307   PD        0.582449    0.676276    0.340907     0.005394
PD1308   PD        0.612981    0.644667    0.337720     0.005394
NI1309   NI        0.595998    0.671079    0.308053     0.004307
PD1310   PD        0.647679    0.641044    0.303302     0.005394
NI1311   NI        0.650071    0.676023    0.337441     0.004307
NI1312   NI        0.689816    0.645466    0.338435     0.004307
NI1313   NI        0.678697    0.672924    0.302990     0.004307
NI1314   NI        0.723376    0.658367    0.304282     0.004307
NI1315   NI        0.716051    0.671087    0.337308     0.004307
NI1316   NI        0.749167    0.637190    0.336676     0.004307
NI1317   NI        0.747015    0.672553    0.302247     0.004307
NI1318   NI        0.165974    0.713829    0.303693     0.004307
NI1319   NI        0.199218    0.727153    0.328863     0.004307
NI1320   NI        0.198790    0.748285    0.304885     0.004307
NI1321   NI        0.227415    0.711641    0.294416     0.004307
NI1322   NI        0.227778    0.747715    0.327449     0.004307
PD1323   PD        0.258748    0.715461    0.328694     0.005394
NI1324   NI        0.271397    0.743580    0.299078     0.004307
NI1325   NI        0.304636    0.720240    0.319257     0.004307
NI1326   NI        0.293674    0.750807    0.332569     0.004307
NI1327   NI        0.351684    0.711346    0.324089     0.004307
NI1328   NI        0.335228    0.752482    0.307237     0.004307
NI1329   NI        0.341305    0.715835    0.302140     0.004307
NI1330   NI        0.378525    0.771704    0.304658     0.004307
NI1331   NI        0.395871    0.725669    0.338052     0.004307
NI1332   NI        0.409724    0.757980    0.279257     0.004307
NI1333   NI        0.431528    0.719528    0.300426     0.004307
PD1334   PD        0.440001    0.744392    0.337105     0.005394
PD1335   PD        0.473014    0.706722    0.335147     0.005394
PD1336   PD        0.474221    0.740887    0.300496     0.005394
PD1337   PD        0.509521    0.707256    0.298632     0.005394
NI1338   NI        0.520848    0.737937    0.334349     0.004307
PD1339   PD        0.545903    0.698351    0.336841     0.005394
NI1340   NI        0.556168    0.759619    0.297564     0.004307
NI1341   NI        0.591554    0.728316    0.293873     0.004307
NI1342   NI        0.571709    0.737549    0.336902     0.004307
PD1343   PD        0.610588    0.709071    0.334250     0.005394
NI1344   NI        0.607092    0.752208    0.315593     0.004307
NI1345   NI        0.661941    0.721871    0.298430     0.004307
NI1346   NI        0.635646    0.756507    0.320359     0.004307
NI1347   NI        0.675155    0.714161    0.342849     0.004307
NI1348   NI        0.696842    0.751345    0.285574     0.004307
NI1349   NI        0.713596    0.706261    0.303105     0.004307
NI1350   NI        0.289840    0.773796    0.330945     0.004307
NI1351   NI        0.305462    0.777511    0.298899     0.004307
NI1352   NI        0.305178    0.813520    0.337762     0.004307
NI1353   NI        0.336477    0.776238    0.332505     0.004307
NI1354   NI        0.338924    0.811032    0.303378     0.004307
NI1355   NI        0.371193    0.776668    0.305391     0.004307
NI1356   NI        0.382446    0.820502    0.335291     0.004307
NI1357   NI        0.406227    0.778530    0.336967     0.004307
NI1358   NI        0.406953    0.810967    0.300891     0.004307
NI1359   NI        0.439042    0.772705    0.305384     0.004307
NI1360   NI        0.441194    0.811455    0.333226     0.004307
NI1361   NI        0.474936    0.777992    0.333452     0.004307
NI1362   NI        0.474273    0.811190    0.298930     0.004307
NI1363   NI        0.509112    0.775838    0.301734     0.004307
NI1364   NI        0.509730    0.813694    0.330624     0.004307
NI1365   NI        0.543840    0.776275    0.332655     0.004307
NI1366   NI        0.552494    0.827568    0.334794     0.004307
NI1367   NI        0.573725    0.773277    0.300259     0.004307
NI1368   NI        0.594150    0.816444    0.353602     0.004307
NI1369   NI        0.626052    0.795397    0.324013     0.004307
PD1370   PD        0.269719    0.052854    0.371088     0.005394
PD1371   PD        0.302189    0.053843    0.405127     0.005394
PD1372   PD        0.336937    0.052701    0.371234     0.005394
PD1373   PD        0.372261    0.053225    0.405554     0.005394
NI1374   NI        0.421682    0.016324    0.430940     0.004307
NI1375   NI        0.381359    0.039320    0.362876     0.004307
NI1376   NI        0.442375    0.019675    0.372910     0.004307
PD1377   PD        0.440019    0.054665    0.406408     0.005394
NI1378   NI        0.475345    0.020580    0.408414     0.004307
NI1379   NI        0.456830    0.044485    0.359516     0.004307
PD1380   PD        0.508200    0.054782    0.405910     0.005394
NI1381   NI        0.558433    0.038143    0.380202     0.004307
NI1382   NI        0.590970    0.041064    0.407758     0.004307
NI1383   NI        0.606482    0.057413    0.366967     0.004307
PD1384   PD        0.165049    0.121865    0.404365     0.005394
PD1385   PD        0.199330    0.087213    0.403563     0.005394
NI1386   NI        0.165998    0.119541    0.337568     0.004307
PD1387   PD        0.234614    0.087696    0.369561     0.005394
PD1388   PD        0.235500    0.120670    0.404527     0.005394
PD1389   PD        0.268203    0.087539    0.405022     0.005394
PD1390   PD        0.268876    0.120847    0.369079     0.005394
PD1391   PD        0.303207    0.086871    0.370439     0.005394
PD1392   PD        0.302154    0.120015    0.403135     0.005394
PD1393   PD        0.338049    0.089183    0.405703     0.005394
PD1394   PD        0.337640    0.120847    0.370567     0.005394
PD1395   PD        0.370412    0.086619    0.369840     0.005394
PD1396   PD        0.371801    0.123552    0.406215     0.005394
PD1397   PD        0.404642    0.087377    0.405404     0.005394
PD1398   PD        0.405169    0.121213    0.369474     0.005394
PD1399   PD        0.440747    0.088598    0.371138     0.005394
NI1400   NI        0.447348    0.102022    0.417003     0.004307
PD1401   PD        0.474527    0.090048    0.405227     0.005394
PD1402   PD        0.473826    0.122517    0.369265     0.005394
NI1403   NI        0.524376    0.070026    0.364588     0.004307
PD1404   PD        0.509759    0.124863    0.403514     0.005394
NI1405   NI        0.552681    0.070588    0.402239     0.004307
NI1406   NI        0.558042    0.105991    0.369077     0.004307
NI1407   NI        0.576300    0.090067    0.368665     0.004307
NI1408   NI        0.573605    0.113409    0.413875     0.004307
NI1409   NI        0.615734    0.078955    0.423347     0.004307
NI1410   NI        0.629093    0.104156    0.381346     0.004307
NI1411   NI        0.678469    0.081258    0.340806     0.004307
NI1412   NI        0.633497    0.113814    0.400390     0.004307
NI1413   NI        0.698545    0.094531    0.381473     0.004307
NI1414   NI        0.679732    0.124440    0.368739     0.004307
NI1415   NI        0.715269    0.122869    0.414282     0.004307
NI1416   NI        0.106765    0.199428    0.398681     0.004307
NI1417   NI        0.131498    0.156774    0.404154     0.004307
NI1418   NI        0.115772    0.202638    0.379394     0.004307
NI1419   NI        0.162783    0.136969    0.358285     0.004307
NI1420   NI        0.161849    0.213155    0.418629     0.004307
PD1421   PD        0.164545    0.157292    0.369521     0.005394
PD1422   PD        0.198662    0.190514    0.369397     0.005394
PD1423   PD        0.233660    0.155836    0.368528     0.005394
PD1424   PD        0.233263    0.189651    0.403101     0.005394
PD1425   PD        0.267899    0.155059    0.403489     0.005394
PD1426   PD        0.267647    0.188654    0.369610     0.005394
PD1427   PD        0.302701    0.155541    0.369920     0.005394
PD1428   PD        0.302807    0.190814    0.402402     0.005394
PD1429   PD        0.335345    0.154430    0.403993     0.005394
PD1430   PD        0.336522    0.190466    0.368503     0.005394
PD1431   PD        0.370644    0.155870    0.369548     0.005394
PD1432   PD        0.369806    0.191721    0.403194     0.005394
PD1433   PD        0.403654    0.157057    0.404448     0.005394
PD1434   PD        0.405289    0.189172    0.369893     0.005394
NI1435   NI        0.441897    0.147777    0.386193     0.004307
PD1436   PD        0.438706    0.190690    0.402054     0.005394
PD1437   PD        0.473826    0.157121    0.403042     0.005394
PD1438   PD        0.473503    0.189582    0.366845     0.005394
PD1439   PD        0.507511    0.155878    0.367398     0.005394
PD1440   PD        0.506555    0.192751    0.401600     0.005394
PD1441   PD        0.542394    0.161064    0.402411     0.005394
PD1442   PD        0.540875    0.191469    0.366427     0.005394
NI1443   NI        0.598933    0.164917    0.378357     0.004307
PD1444   PD        0.575077    0.197599    0.402139     0.005394
NI1445   NI        0.628676    0.162075    0.403152     0.004307
PD1446   PD        0.609288    0.187724    0.367776     0.005394
NI1447   NI        0.650123    0.157092    0.361339     0.004307
NI1448   NI        0.660584    0.185361    0.399277     0.004307
NI1449   NI        0.708546    0.143616    0.421693     0.004307
NI1450   NI        0.694427    0.177813    0.365169     0.004307
NI1451   NI        0.734669    0.152927    0.379706     0.004307
NI1452   NI        0.709186    0.187419    0.403814     0.004307
NI1453   NI        0.747882    0.158297    0.404068     0.004307
NI1454   NI        0.759843    0.198406    0.362078     0.004307
NI1455   NI        0.780520    0.193910    0.405076     0.004307
NI1456   NI        0.052044    0.267501    0.350360     0.004307
NI1457   NI        0.098754    0.226812    0.368622     0.004307
NI1458   NI        0.077378    0.271713    0.393498     0.004307
NI1459   NI        0.118839    0.238528    0.424120     0.004307
PD1460   PD        0.132784    0.260336    0.369917     0.005394
NI1461   NI        0.149835    0.229639    0.374532     0.004307
PD1462   PD        0.165634    0.258319    0.404173     0.005394
PD1463   PD        0.199843    0.225270    0.403760     0.005394
PD1464   PD        0.199097    0.257431    0.368714     0.005394
PD1465   PD        0.234736    0.224310    0.370082     0.005394
PD1466   PD        0.222394    0.266021    0.394277     0.005394
PD1467   PD        0.268082    0.224327    0.403776     0.005394
PD1468   PD        0.267524    0.258815    0.369075     0.005394
PD1469   PD        0.302678    0.223081    0.368345     0.005394
PD1470   PD        0.303753    0.259337    0.403277     0.005394
PD1471   PD        0.335795    0.224657    0.404028     0.005394
PD1472   PD        0.335651    0.257949    0.367364     0.005394
PD1473   PD        0.344830    0.243748    0.378803     0.005394
PD1474   PD        0.352826    0.258326    0.405589     0.005394
PD1475   PD        0.404764    0.225389    0.403581     0.005394
PD1476   PD        0.381105    0.251155    0.350165     0.005394
PD1477   PD        0.437740    0.224567    0.367302     0.005394
PD1478   PD        0.438483    0.260568    0.401993     0.005394
PD1479   PD        0.472257    0.225705    0.403094     0.005394
PD1480   PD        0.472072    0.257900    0.368471     0.005394
PD1481   PD        0.506479    0.224550    0.367796     0.005394
PD1482   PD        0.507251    0.258904    0.399879     0.005394
PD1483   PD        0.551249    0.240024    0.390151     0.005394
PD1484   PD        0.540894    0.257413    0.366060     0.005394
NI1485   NI        0.586835    0.211252    0.370127     0.004307
PD1486   PD        0.575987    0.257435    0.401752     0.005394
PD1487   PD        0.609580    0.219223    0.403469     0.005394
PD1488   PD        0.624646    0.261773    0.387443     0.005394
NI1489   NI        0.649784    0.231637    0.368986     0.004307
PD1490   PD        0.654548    0.266644    0.418640     0.005394
NI1491   NI        0.710435    0.237559    0.433888     0.004307
NI1492   NI        0.672414    0.276634    0.369116     0.004307
NI1493   NI        0.712115    0.229652    0.374973     0.004307
NI1494   NI        0.734432    0.265089    0.408174     0.004307
NI1495   NI        0.746788    0.230125    0.405371     0.004307
NI1496   NI        0.740182    0.265918    0.366555     0.004307
NI1497   NI        0.794682    0.242866    0.366259     0.004307
NI1498   NI        0.780438    0.268264    0.402472     0.004307
NI1499   NI        0.818221    0.285810    0.367678     0.004307
NI1500   NI        0.038073    0.302906    0.430907     0.004307
NI1501   NI        0.053641    0.348948    0.370955     0.004307
NI1502   NI        0.101549    0.294794    0.374364     0.004307
NI1503   NI        0.107171    0.334832    0.405349     0.004307
PD1504   PD        0.133334    0.295792    0.404429     0.005394
PD1505   PD        0.135524    0.329213    0.369548     0.005394
NI1506   NI        0.143868    0.294517    0.394643     0.004307
PD1507   PD        0.156220    0.338773    0.403856     0.005394
PD1508   PD        0.197521    0.291494    0.402788     0.005394
PD1509   PD        0.197282    0.345813    0.382226     0.005394
PD1510   PD        0.227125    0.306926    0.373109     0.005394
PD1511   PD        0.218207    0.330214    0.389519     0.005394
PD1512   PD        0.256546    0.298991    0.398371     0.005394
PD1513   PD        0.260473    0.335479    0.366863     0.005394
PD1514   PD        0.302067    0.303564    0.389248     0.005394
PD1515   PD        0.302924    0.326158    0.402529     0.005394
PD1516   PD        0.340654    0.297978    0.407341     0.005394
PD1517   PD        0.336560    0.327870    0.368173     0.005394
PD1518   PD        0.370757    0.291811    0.367524     0.005394
PD1519   PD        0.379210    0.326528    0.411532     0.005394
PD1520   PD        0.409847    0.297037    0.408251     0.005394
PD1521   PD        0.405655    0.327978    0.365969     0.005394
PD1522   PD        0.438409    0.291993    0.363896     0.005394
PD1523   PD        0.432454    0.347577    0.420321     0.005394
PD1524   PD        0.472656    0.292848    0.400683     0.005394
PD1525   PD        0.463189    0.329168    0.364611     0.005394
PD1526   PD        0.505112    0.308871    0.373876     0.005394
PD1527   PD        0.509058    0.324202    0.399621     0.005394
PD1528   PD        0.543185    0.291373    0.399245     0.005394
PD1529   PD        0.552368    0.344817    0.388087     0.005394
PD1530   PD        0.576385    0.293402    0.366896     0.005394
PD1531   PD        0.592437    0.333800    0.413645     0.005394
PD1532   PD        0.608242    0.293298    0.399931     0.005394
PD1533   PD        0.608880    0.329835    0.367418     0.005394
PD1534   PD        0.650083    0.290379    0.408449     0.005394
PD1535   PD        0.674986    0.306776    0.403921     0.005394
PD1536   PD        0.696008    0.293260    0.421132     0.005394
NI1537   NI        0.705114    0.321781    0.379546     0.004307
NI1538   NI        0.716498    0.289012    0.353117     0.004307
PD1539   PD        0.713139    0.335204    0.409286     0.005394
NI1540   NI        0.772887    0.275198    0.397708     0.004307
PD1541   PD        0.741985    0.322973    0.372518     0.005394
NI1542   NI        0.789287    0.323533    0.375720     0.004307
NI1543   NI        0.778451    0.339152    0.411365     0.004307
NI1544   NI        0.812350    0.294718    0.408693     0.004307
NI1545   NI        0.815946    0.358472    0.355381     0.004307
NI1546   NI        0.031499    0.399781    0.402625     0.004307
NI1547   NI        0.060416    0.369126    0.414789     0.004307
NI1548   NI        0.054614    0.388883    0.344862     0.004307
NI1549   NI        0.089116    0.377414    0.385549     0.004307
NI1550   NI        0.064040    0.417596    0.396100     0.004307
NI1551   NI        0.108651    0.404062    0.403385     0.004307
PD1552   PD        0.135568    0.398216    0.364264     0.005394
PD1553   PD        0.156286    0.370131    0.364695     0.005394
PD1554   PD        0.158339    0.404332    0.401013     0.005394
PD1555   PD        0.213720    0.357352    0.396737     0.005394
PD1556   PD        0.191654    0.403112    0.364762     0.005394
PD1557   PD        0.228951    0.370829    0.365482     0.005394
PD1558   PD        0.225022    0.403724    0.399403     0.005394
PD1559   PD        0.257948    0.365465    0.403888     0.005394
PD1560   PD        0.261194    0.405864    0.366746     0.005394
PD1561   PD        0.291956    0.373557    0.381567     0.005394
PD1562   PD        0.315935    0.396180    0.399060     0.005394
PD1563   PD        0.347886    0.364282    0.414934     0.005394
PD1564   PD        0.346835    0.416703    0.369341     0.005394
PD1565   PD        0.385912    0.353855    0.362980     0.005394
PD1566   PD        0.362188    0.399753    0.399437     0.005394
PD1567   PD        0.421285    0.358404    0.395937     0.005394
PD1568   PD        0.406965    0.393685    0.368832     0.005394
PD1569   PD        0.431924    0.353071    0.372297     0.005394
PD1570   PD        0.429515    0.392613    0.398116     0.005394
PD1571   PD        0.474862    0.359949    0.400654     0.005394
PD1572   PD        0.489398    0.405788    0.380579     0.005394
PD1573   PD        0.512299    0.357376    0.364368     0.005394
PD1574   PD        0.516977    0.406899    0.413824     0.005394
PD1575   PD        0.535853    0.364355    0.404774     0.005394
PD1576   PD        0.549574    0.389550    0.366744     0.005394
PD1577   PD        0.578828    0.362966    0.385772     0.005394
PD1578   PD        0.589599    0.402974    0.400117     0.005394
PD1579   PD        0.622229    0.369090    0.401325     0.005394
PD1580   PD        0.596723    0.397608    0.360073     0.005394
PD1581   PD        0.642133    0.354123    0.357093     0.005394
PD1582   PD        0.655068    0.409457    0.416769     0.005394
PD1583   PD        0.683529    0.372986    0.405080     0.005394
PD1584   PD        0.694910    0.398408    0.357445     0.005394
PD1585   PD        0.722517    0.368574    0.376842     0.005394
NI1586   NI        0.718251    0.408684    0.405717     0.004307
NI1587   NI        0.748622    0.355972    0.401818     0.004307
NI1588   NI        0.743670    0.391502    0.355802     0.004307
NI1589   NI        0.783957    0.379518    0.381255     0.004307
NI1590   NI        0.788547    0.402907    0.402459     0.004307
NI1591   NI        0.830932    0.384939    0.416399     0.004307
NI1592   NI        0.826119    0.403847    0.372755     0.004307
NI1593   NI        0.857244    0.402021    0.410646     0.004307
NI1594   NI        0.022089    0.420418    0.362267     0.004307
NI1595   NI        0.030472    0.473415    0.414683     0.004307
NI1596   NI        0.055708    0.439184    0.391442     0.004307
NI1597   NI        0.068123    0.470093    0.373520     0.004307
NI1598   NI        0.094194    0.449196    0.386349     0.004307
NI1599   NI        0.071036    0.501877    0.408912     0.004307
PD1600   PD        0.137492    0.432027    0.401024     0.005394
NI1601   NI        0.082916    0.473684    0.369520     0.004307
PD1602   PD        0.158933    0.438323    0.364370     0.005394
PD1603   PD        0.160526    0.473248    0.398997     0.005394
PD1604   PD        0.191844    0.436893    0.400060     0.005394
PD1605   PD        0.194344    0.472099    0.365636     0.005394
PD1606   PD        0.246389    0.434544    0.375068     0.005394
PD1607   PD        0.225717    0.470264    0.399898     0.005394
PD1608   PD        0.275526    0.422743    0.411517     0.005394
PD1609   PD        0.272175    0.489697    0.405964     0.005394
PD1610   PD        0.303947    0.431339    0.369012     0.005394
PD1611   PD        0.311629    0.463803    0.405524     0.005394
PD1612   PD        0.343404    0.434515    0.386417     0.005394
PD1613   PD        0.328181    0.480707    0.380367     0.005394
PD1614   PD        0.384886    0.422564    0.361080     0.005394
PD1615   PD        0.358486    0.475792    0.417556     0.005394
PD1616   PD        0.404568    0.432335    0.402811     0.005394
PD1617   PD        0.399487    0.475806    0.390273     0.005394
PD1618   PD        0.455048    0.436152    0.364543     0.005394
PD1619   PD        0.438594    0.473718    0.413851     0.005394
PD1620   PD        0.483174    0.424250    0.405304     0.005394
PD1621   PD        0.463646    0.455101    0.374576     0.005394
PD1622   PD        0.518029    0.427027    0.369666     0.005394
PD1623   PD        0.513022    0.478196    0.409833     0.005394
PD1624   PD        0.543251    0.445615    0.422351     0.005394
PD1625   PD        0.547867    0.462973    0.361608     0.005394
PD1626   PD        0.577317    0.425159    0.359470     0.005394
PD1627   PD        0.573988    0.468691    0.401362     0.005394
PD1628   PD        0.609295    0.436813    0.412742     0.005394
PD1629   PD        0.631269    0.487129    0.368643     0.005394
PD1630   PD        0.639654    0.434096    0.375738     0.005394
PD1631   PD        0.659147    0.469472    0.404318     0.005394
PD1632   PD        0.694086    0.436249    0.406777     0.005394
PD1633   PD        0.697614    0.471146    0.358147     0.005394
PD1634   PD        0.724609    0.434371    0.370023     0.005394
PD1635   PD        0.728327    0.470830    0.408666     0.005394
NI1636   NI        0.760505    0.432354    0.417368     0.004307
PD1637   PD        0.757150    0.473177    0.369759     0.005394
NI1638   NI        0.790313    0.438149    0.372165     0.004307
NI1639   NI        0.790746    0.476315    0.385318     0.004307
NI1640   NI        0.823700    0.437703    0.409030     0.004307
NI1641   NI        0.824906    0.470810    0.375792     0.004307
NI1642   NI        0.859542    0.437026    0.376340     0.004307
NI1643   NI        0.859364    0.470130    0.410850     0.004307
NI1644   NI        0.084071    0.507897    0.401372     0.004307
NI1645   NI        0.069615    0.528580    0.374069     0.004307
PD1646   PD        0.093489    0.510521    0.370626     0.005394
PD1647   PD        0.096946    0.544944    0.406315     0.005394
PD1648   PD        0.128868    0.508370    0.404577     0.005394
PD1649   PD        0.128420    0.543176    0.370328     0.005394
PD1650   PD        0.161239    0.508799    0.366754     0.005394
PD1651   PD        0.153231    0.538346    0.386994     0.005394
PD1652   PD        0.197346    0.505271    0.398891     0.005394
PD1653   PD        0.199394    0.546659    0.385586     0.005394
PD1654   PD        0.229703    0.506510    0.365374     0.005394
PD1655   PD        0.234099    0.531348    0.415429     0.005394
PD1656   PD        0.265096    0.499639    0.399448     0.005394
PD1657   PD        0.279260    0.542847    0.364375     0.005394
PD1658   PD        0.319762    0.497967    0.371696     0.005394
PD1659   PD        0.301581    0.548659    0.403534     0.005394
PD1660   PD        0.331413    0.509188    0.400487     0.005394
PD1661   PD        0.347163    0.557914    0.362846     0.005394
PD1662   PD        0.367429    0.504155    0.370472     0.005394
PD1663   PD        0.365222    0.536453    0.404401     0.005394
PD1664   PD        0.389472    0.514267    0.413877     0.005394
PD1665   PD        0.418016    0.545080    0.373977     0.005394
PD1666   PD        0.452285    0.490052    0.359722     0.005394
PD1667   PD        0.443649    0.543853    0.410269     0.005394
PD1668   PD        0.469585    0.507320    0.399945     0.005394
PD1669   PD        0.467276    0.542216    0.380354     0.005394
PD1670   PD        0.517213    0.493831    0.370904     0.005394
PD1671   PD        0.510209    0.531215    0.398574     0.005394
PD1672   PD        0.541367    0.507457    0.400023     0.005394
PD1673   PD        0.534540    0.507902    0.354523     0.005394
PD1674   PD        0.592463    0.507415    0.367838     0.005394
PD1675   PD        0.573945    0.537010    0.401440     0.005394
PD1676   PD        0.622629    0.495370    0.394554     0.005394
PD1677   PD        0.630456    0.538427    0.374649     0.005394
PD1678   PD        0.663701    0.503713    0.370718     0.005394
PD1679   PD        0.662454    0.538858    0.402629     0.005394
PD1680   PD        0.694285    0.505605    0.406594     0.005394
PD1681   PD        0.682688    0.547905    0.370387     0.005394
NI1682   NI        0.739694    0.512859    0.388513     0.004307
PD1683   PD        0.709652    0.536835    0.407173     0.005394
NI1684   NI        0.757690    0.505332    0.408684     0.004307
PD1685   PD        0.752647    0.549145    0.367099     0.005394
NI1686   NI        0.782435    0.510912    0.368735     0.004307
NI1687   NI        0.782131    0.544882    0.402922     0.004307
NI1688   NI        0.822790    0.509869    0.392997     0.004307
NI1689   NI        0.819739    0.542365    0.362140     0.004307
NI1690   NI        0.064134    0.578065    0.408640     0.004307
NI1691   NI        0.064151    0.623917    0.348585     0.004307
NI1692   NI        0.089831    0.591407    0.387786     0.004307
NI1693   NI        0.090322    0.625862    0.423691     0.004307
PD1694   PD        0.132484    0.576072    0.404700     0.005394
NI1695   NI        0.120059    0.587782    0.362310     0.004307
PD1696   PD        0.163921    0.576816    0.367814     0.005394
PD1697   PD        0.164645    0.609413    0.402842     0.005394
PD1698   PD        0.197521    0.574565    0.399465     0.005394
PD1699   PD        0.197450    0.608634    0.366585     0.005394
PD1700   PD        0.232805    0.577201    0.365614     0.005394
NI1701   NI        0.229696    0.610558    0.415750     0.004307
PD1702   PD        0.262614    0.564535    0.378603     0.005394
PD1703   PD        0.265158    0.612084    0.365887     0.005394
PD1704   PD        0.306066    0.581600    0.368317     0.005394
PD1705   PD        0.298632    0.607308    0.408543     0.005394
PD1706   PD        0.333610    0.573156    0.406634     0.005394
PD1707   PD        0.331078    0.617265    0.371941     0.005394
PD1708   PD        0.361538    0.588950    0.359545     0.005394
PD1709   PD        0.381748    0.596246    0.401744     0.005394
PD1710   PD        0.408806    0.571569    0.397564     0.005394
PD1711   PD        0.413133    0.604870    0.363825     0.005394
PD1712   PD        0.437493    0.587459    0.373586     0.005394
PD1713   PD        0.421334    0.623024    0.403103     0.005394
PD1714   PD        0.477675    0.578912    0.410947     0.005394
PD1715   PD        0.467076    0.606510    0.374929     0.005394
PD1716   PD        0.506347    0.577844    0.373645     0.005394
PD1717   PD        0.513793    0.623444    0.413919     0.005394
PD1718   PD        0.559238    0.570626    0.402201     0.005394
PD1719   PD        0.563055    0.597709    0.359905     0.005394
PD1720   PD        0.573973    0.573888    0.367608     0.005394
PD1721   PD        0.578481    0.613545    0.393122     0.005394
PD1722   PD        0.630104    0.574234    0.407049     0.005394
NI1723   NI        0.619402    0.619974    0.375627     0.004307
PD1724   PD        0.637663    0.555507    0.383375     0.005394
PD1725   PD        0.641992    0.619634    0.411693     0.005394
PD1726   PD        0.690553    0.578184    0.407212     0.005394
PD1727   PD        0.678963    0.597235    0.364133     0.005394
PD1728   PD        0.718125    0.581678    0.380520     0.005394
NI1729   NI        0.720287    0.616100    0.401827     0.004307
NI1730   NI        0.758432    0.572914    0.407721     0.004307
NI1731   NI        0.755920    0.607323    0.372289     0.004307
NI1732   NI        0.781093    0.569103    0.367421     0.004307
NI1733   NI        0.788476    0.608086    0.406533     0.004307
NI1734   NI        0.822404    0.558875    0.403370     0.004307
NI1735   NI        0.825440    0.631323    0.392758     0.004307
NI1736   NI        0.085615    0.629100    0.358207     0.004307
NI1737   NI        0.087096    0.664668    0.394137     0.004307
NI1738   NI        0.132003    0.643970    0.403709     0.004307
NI1739   NI        0.131576    0.676273    0.373237     0.004307
PD1740   PD        0.166131    0.643907    0.369530     0.005394
NI1741   NI        0.165827    0.688570    0.381418     0.004307
PD1742   PD        0.199581    0.643127    0.403801     0.005394
NI1743   NI        0.193790    0.680564    0.363226     0.004307
PD1744   PD        0.230193    0.645918    0.365279     0.005394
PD1745   PD        0.227509    0.681146    0.399209     0.005394
PD1746   PD        0.283904    0.651105    0.407841     0.005394
PD1747   PD        0.260626    0.681888    0.363696     0.005394
PD1748   PD        0.296657    0.650181    0.366219     0.005394
PD1749   PD        0.293972    0.687150    0.397963     0.005394
PD1750   PD        0.331013    0.654843    0.401233     0.005394
PD1751   PD        0.351051    0.677067    0.361717     0.005394
PD1752   PD        0.373857    0.640970    0.380825     0.005394
PD1753   PD        0.362386    0.680406    0.402571     0.005394
PD1754   PD        0.407238    0.647153    0.413246     0.005394
PD1755   PD        0.421444    0.671094    0.373394     0.005394
PD1756   PD        0.436712    0.645167    0.374601     0.005394
PD1757   PD        0.447161    0.682205    0.407702     0.005394
PD1758   PD        0.473609    0.642340    0.397935     0.005394
PD1759   PD        0.481678    0.684315    0.371924     0.005394
PD1760   PD        0.511063    0.647630    0.373026     0.005394
PD1761   PD        0.523235    0.686020    0.414950     0.005394
PD1762   PD        0.546209    0.644648    0.406861     0.005394
PD1763   PD        0.528811    0.677685    0.377135     0.005394
PD1764   PD        0.592880    0.654542    0.380439     0.005394
NI1765   NI        0.590024    0.696078    0.400454     0.004307
PD1766   PD        0.606942    0.658408    0.403348     0.005394
NI1767   NI        0.625185    0.687941    0.368710     0.004307
PD1768   PD        0.649368    0.647300    0.371964     0.005394
NI1769   NI        0.650430    0.680053    0.407744     0.004307
NI1770   NI        0.710217    0.666650    0.402870     0.004307
NI1771   NI        0.685788    0.681184    0.368968     0.004307
NI1772   NI        0.728598    0.664133    0.357254     0.004307
NI1773   NI        0.731479    0.713406    0.404238     0.004307
NI1774   NI        0.753650    0.642523    0.406880     0.004307
NI1775   NI        0.751779    0.672884    0.368619     0.004307
NI1776   NI        0.792270    0.619209    0.359422     0.004307
NI1777   NI        0.782028    0.674002    0.399367     0.004307
NI1778   NI        0.121313    0.700001    0.398659     0.004307
NI1779   NI        0.157455    0.712004    0.364671     0.004307
NI1780   NI        0.161101    0.770569    0.389147     0.004307
NI1781   NI        0.196054    0.712308    0.417636     0.004307
NI1782   NI        0.205973    0.745747    0.371766     0.004307
NI1783   NI        0.236263    0.709225    0.369990     0.004307
NI1784   NI        0.234802    0.764295    0.392312     0.004307
NI1785   NI        0.276825    0.718959    0.405930     0.004307
NI1786   NI        0.258553    0.750551    0.362006     0.004307
NI1787   NI        0.318400    0.699871    0.388802     0.004307
NI1788   NI        0.300989    0.755602    0.388077     0.004307
PD1789   PD        0.324184    0.724154    0.398135     0.005394
NI1790   NI        0.344372    0.759038    0.372686     0.004307
PD1791   PD        0.362286    0.720180    0.370459     0.005394
NI1792   NI        0.375945    0.772357    0.435175     0.004307
PD1793   PD        0.403041    0.736666    0.425425     0.005394
NI1794   NI        0.390937    0.763398    0.369190     0.004307
PD1795   PD        0.441164    0.711942    0.371699     0.005394
PD1796   PD        0.445672    0.750064    0.408213     0.005394
NI1797   NI        0.483330    0.725945    0.392838     0.004307
NI1798   NI        0.475769    0.768739    0.379976     0.004307
NI1799   NI        0.500637    0.731231    0.370135     0.004307
PD1800   PD        0.515137    0.753486    0.406170     0.005394
NI1801   NI        0.549574    0.717744    0.392001     0.004307
NI1802   NI        0.540998    0.757660    0.373720     0.004307
NI1803   NI        0.585283    0.713621    0.375461     0.004307
NI1804   NI        0.569324    0.755963    0.414885     0.004307
NI1805   NI        0.610112    0.738648    0.411445     0.004307
NI1806   NI        0.614338    0.759972    0.370082     0.004307
NI1807   NI        0.640746    0.720616    0.380526     0.004307
NI1808   NI        0.663652    0.759505    0.390200     0.004307
NI1809   NI        0.687670    0.709517    0.407124     0.004307
NI1810   NI        0.713898    0.758138    0.379898     0.004307
NI1811   NI        0.714579    0.706383    0.370169     0.004307
NI1812   NI        0.724701    0.746138    0.404482     0.004307
NI1813   NI        0.734458    0.721643    0.403585     0.004307
NI1814   NI        0.210089    0.803808    0.405107     0.004307
NI1815   NI        0.239417    0.781784    0.374727     0.004307
NI1816   NI        0.269020    0.785462    0.381099     0.004307
NI1817   NI        0.276900    0.810709    0.358623     0.004307
NI1818   NI        0.299193    0.770212    0.343971     0.004307
NI1819   NI        0.304509    0.807179    0.404278     0.004307
NI1820   NI        0.340675    0.787165    0.407829     0.004307
NI1821   NI        0.335406    0.805142    0.375846     0.004307
NI1822   NI        0.375400    0.782100    0.374286     0.004307
NI1823   NI        0.370662    0.829216    0.415812     0.004307
PD1824   PD        0.412536    0.786142    0.406349     0.005394
NI1825   NI        0.410978    0.815185    0.370096     0.004307
NI1826   NI        0.433940    0.774206    0.357994     0.004307
NI1827   NI        0.448156    0.812588    0.400934     0.004307
PD1828   PD        0.481698    0.786746    0.406831     0.005394
NI1829   NI        0.476383    0.814506    0.367426     0.004307
PD1830   PD        0.509571    0.776826    0.366579     0.005394
NI1831   NI        0.516515    0.822294    0.409966     0.004307
NI1832   NI        0.548850    0.788476    0.409598     0.004307
NI1833   NI        0.545928    0.808052    0.365977     0.004307
NI1834   NI        0.574587    0.775799    0.369079     0.004307
NI1835   NI        0.585353    0.820357    0.410905     0.004307
NI1836   NI        0.601110    0.776492    0.400884     0.004307
NI1837   NI        0.615641    0.837936    0.333065     0.004307
NI1838   NI        0.671842    0.757174    0.361941     0.004307
NI1839   NI        0.685870    0.781284    0.410687     0.004307
NI1840   NI        0.398640    0.867370    0.402937     0.004307
NI1841   NI        0.441150    0.846244    0.365884     0.004307
NI1842   NI        0.464679    0.868915    0.405730     0.004307
NI1843   NI        0.268869    0.054407    0.441303     0.004307
PD1844   PD        0.304158    0.055558    0.474010     0.005394
PD1845   PD        0.336794    0.054307    0.440445     0.005394
NI1846   NI        0.374079    0.019730    0.440658     0.004307
PD1847   PD        0.370579    0.054080    0.473761     0.005394
NI1848   NI        0.404475    0.020011    0.473532     0.004307
NI1849   NI        0.427830    0.044962    0.410746     0.004307
NI1850   NI        0.467953    0.000714    0.431854     0.004307
PD1851   PD        0.440089    0.056501    0.474457     0.005394
NI1852   NI        0.472936    0.018818    0.474658     0.004307
NI1853   NI        0.459559    0.044664    0.447509     0.004307
NI1854   NI        0.509374    0.027205    0.437265     0.004307
NI1855   NI        0.505039    0.052667    0.473852     0.004307
NI1856   NI        0.544414    0.058063    0.440284     0.004307
NI1857   NI        0.581879    0.065828    0.474277     0.004307
NI1858   NI        0.611237    0.050135    0.419107     0.004307
NI1859   NI        0.167173    0.125071    0.472361     0.004307
NI1860   NI        0.199553    0.087152    0.473662     0.004307
PD1861   PD        0.200786    0.122397    0.438841     0.005394
PD1862   PD        0.234621    0.087379    0.439415     0.005394
PD1863   PD        0.234850    0.123111    0.473778     0.005394
PD1864   PD        0.269905    0.090493    0.473354     0.005394
NI1865   NI        0.273401    0.135618    0.429174     0.004307
PD1866   PD        0.301550    0.089866    0.438793     0.005394
NI1867   NI        0.319744    0.145117    0.480898     0.004307
NI1868   NI        0.337320    0.080134    0.495785     0.004307
PD1869   PD        0.332999    0.124121    0.437477     0.005394
PD1870   PD        0.370624    0.087938    0.438183     0.005394
NI1871   NI        0.365823    0.132683    0.471722     0.004307
NI1872   NI        0.416607    0.063413    0.461858     0.004307
NI1873   NI        0.404687    0.121873    0.437982     0.004307
PD1874   PD        0.440165    0.089118    0.439894     0.005394
NI1875   NI        0.439138    0.100709    0.483396     0.004307
NI1876   NI        0.511491    0.058523    0.474767     0.004307
NI1877   NI        0.483104    0.108899    0.450574     0.004307
NI1878   NI        0.522531    0.094559    0.430138     0.004307
PD1879   PD        0.507955    0.123375    0.472618     0.005394
PD1880   PD        0.543534    0.092508    0.473190     0.005394
NI1881   NI        0.574757    0.096451    0.436679     0.004307
NI1882   NI        0.567101    0.098783    0.448859     0.004307
NI1883   NI        0.584486    0.111218    0.495379     0.004307
NI1884   NI        0.603539    0.073253    0.483928     0.004307
NI1885   NI        0.611997    0.129558    0.438159     0.004307
NI1886   NI        0.661794    0.087086    0.423983     0.004307
NI1887   NI        0.644785    0.130479    0.471201     0.004307
NI1888   NI        0.704642    0.106290    0.494223     0.004307
NI1889   NI        0.701414    0.115687    0.461064     0.004307
NI1890   NI        0.716504    0.151299    0.486528     0.004307
NI1891   NI        0.127960    0.197927    0.496979     0.004307
NI1892   NI        0.132308    0.157133    0.472729     0.004307
NI1893   NI        0.144980    0.216418    0.418050     0.004307
PD1894   PD        0.165898    0.157798    0.438442     0.005394
PD1895   PD        0.165942    0.190252    0.472739     0.005394
NI1896   NI        0.180472    0.168943    0.481027     0.004307
PD1897   PD        0.199191    0.190370    0.439206     0.005394
PD1898   PD        0.234082    0.157252    0.437584     0.005394
PD1899   PD        0.235069    0.192532    0.472697     0.005394
PD1900   PD        0.267630    0.158304    0.471713     0.005394
PD1901   PD        0.268164    0.191273    0.436602     0.005394
PD1902   PD        0.301972    0.157685    0.436891     0.005394
NI1903   NI        0.317193    0.178393    0.462248     0.004307
PD1904   PD        0.337198    0.157611    0.471700     0.005394
PD1905   PD        0.335255    0.192740    0.437985     0.005394
PD1906   PD        0.369958    0.158636    0.437917     0.005394
PD1907   PD        0.371409    0.192646    0.471649     0.005394
PD1908   PD        0.403036    0.156055    0.471034     0.005394
PD1909   PD        0.404134    0.192474    0.436503     0.005394
PD1910   PD        0.439943    0.157487    0.437439     0.005394
PD1911   PD        0.439081    0.192083    0.470617     0.005394
NI1912   NI        0.491267    0.159560    0.462869     0.004307
PD1913   PD        0.475144    0.192006    0.435665     0.005394
PD1914   PD        0.517835    0.140057    0.418205     0.005394
PD1915   PD        0.511486    0.195750    0.486148     0.005394
PD1916   PD        0.542808    0.129490    0.506233     0.005394
PD1917   PD        0.541052    0.190017    0.436878     0.005394
NI1918   NI        0.595023    0.138129    0.449625     0.004307
NI1919   NI        0.602106    0.182040    0.476367     0.004307
PD1920   PD        0.612074    0.164904    0.470596     0.005394
NI1921   NI        0.631636    0.191928    0.436642     0.004307
NI1922   NI        0.643334    0.150715    0.445568     0.004307
NI1923   NI        0.656393    0.187488    0.475750     0.004307
NI1924   NI        0.669343    0.162265    0.488073     0.004307
NI1925   NI        0.697778    0.180026    0.451888     0.004307
NI1926   NI        0.713352    0.163406    0.440262     0.004307
NI1927   NI        0.734606    0.193963    0.480295     0.004307
NI1928   NI        0.770753    0.161105    0.484930     0.004307
NI1929   NI        0.749549    0.195323    0.432382     0.004307
NI1930   NI        0.782423    0.193281    0.481429     0.004307
NI1931   NI        0.062985    0.261411    0.437513     0.004307
NI1932   NI        0.081048    0.261533    0.439109     0.004307
NI1933   NI        0.097868    0.261909    0.472388     0.004307
NI1934   NI        0.125035    0.223482    0.482999     0.004307
PD1935   PD        0.132740    0.261985    0.436974     0.005394
NI1936   NI        0.152541    0.234308    0.458560     0.004307
NI1937   NI        0.162616    0.248661    0.493005     0.004307
PD1938   PD        0.200137    0.225301    0.472834     0.005394
PD1939   PD        0.201003    0.259383    0.437790     0.005394
PD1940   PD        0.228113    0.224969    0.416596     0.005394
PD1941   PD        0.233596    0.260208    0.473375     0.005394
PD1942   PD        0.268281    0.226306    0.471083     0.005394
PD1943   PD        0.261205    0.259715    0.423853     0.005394
PD1944   PD        0.302721    0.226256    0.438261     0.005394
PD1945   PD        0.301336    0.259290    0.471239     0.005394
PD1946   PD        0.336496    0.225995    0.471401     0.005394
PD1947   PD        0.336444    0.257243    0.437288     0.005394
PD1948   PD        0.370251    0.225206    0.436305     0.005394
PD1949   PD        0.370984    0.259719    0.473253     0.005394
PD1950   PD        0.405089    0.225747    0.470985     0.005394
PD1951   PD        0.406867    0.259041    0.438473     0.005394
PD1952   PD        0.446367    0.226694    0.455540     0.005394
PD1953   PD        0.438427    0.259794    0.487572     0.005394
PD1954   PD        0.474808    0.226342    0.486505     0.005394
PD1955   PD        0.475243    0.258354    0.435158     0.005394
PD1956   PD        0.531273    0.216054    0.450793     0.005394
PD1957   PD        0.507693    0.257272    0.469815     0.005394
PD1958   PD        0.541796    0.227609    0.471393     0.005394
PD1959   PD        0.543571    0.256859    0.434218     0.005394
PD1960   PD        0.574043    0.224368    0.436277     0.005394
PD1961   PD        0.576711    0.260776    0.467749     0.005394
PD1962   PD        0.633221    0.230962    0.463810     0.005394
PD1963   PD        0.616086    0.268225    0.436818     0.005394
NI1964   NI        0.668506    0.214016    0.437451     0.004307
PD1965   PD        0.660935    0.270105    0.487019     0.005394
NI1966   NI        0.678249    0.230322    0.468403     0.004307
NI1967   NI        0.682875    0.259556    0.430532     0.004307
NI1968   NI        0.724002    0.224161    0.459674     0.004307
PD1969   PD        0.718161    0.275153    0.467008     0.005394
NI1970   NI        0.759477    0.232381    0.463162     0.004307
NI1971   NI        0.746021    0.270161    0.438045     0.004307
NI1972   NI        0.774750    0.235159    0.421139     0.004307
NI1973   NI        0.784598    0.262559    0.479083     0.004307
NI1974   NI        0.816959    0.263186    0.427933     0.004307
NI1975   NI        0.065088    0.300419    0.471303     0.004307
NI1976   NI        0.078330    0.329893    0.431968     0.004307
NI1977   NI        0.087028    0.302586    0.432057     0.004307
PD1978   PD        0.102046    0.332567    0.470965     0.005394
PD1979   PD        0.135494    0.298255    0.470350     0.005394
NI1980   NI        0.113784    0.323337    0.420411     0.004307
NI1981   NI        0.152830    0.294663    0.424314     0.004307
PD1982   PD        0.164641    0.327566    0.471590     0.005394
PD1983   PD        0.199008    0.294427    0.471858     0.005394
PD1984   PD        0.195119    0.319428    0.423721     0.005394
PD1985   PD        0.236320    0.292024    0.437377     0.005394
PD1986   PD        0.245287    0.339807    0.467267     0.005394
PD1987   PD        0.269156    0.294330    0.471721     0.005394
PD1988   PD        0.275092    0.321872    0.446764     0.005394
PD1989   PD        0.304930    0.295423    0.437243     0.005394
PD1990   PD        0.300685    0.329044    0.471064     0.005394
PD1991   PD        0.338791    0.308581    0.476927     0.005394
PD1992   PD        0.355594    0.333131    0.464728     0.005394
PD1993   PD        0.370182    0.295691    0.437871     0.005394
PD1994   PD        0.386777    0.316958    0.474945     0.005394
PD1995   PD        0.403931    0.294269    0.471013     0.005394
PD1996   PD        0.410546    0.325730    0.446477     0.005394
PD1997   PD        0.453474    0.269120    0.431667     0.005394
PD1998   PD        0.439691    0.338190    0.487860     0.005394
PD1999   PD        0.473132    0.292856    0.469399     0.005394
PD2000   PD        0.473757    0.327871    0.434510     0.005394
PD2001   PD        0.508215    0.291446    0.435047     0.005394
PD2002   PD        0.500941    0.318951    0.474051     0.005394
PD2003   PD        0.550604    0.302203    0.470909     0.005394
PD2004   PD        0.551117    0.339286    0.438694     0.005394
PD2005   PD        0.598997    0.299347    0.445499     0.005394
PD2006   PD        0.587163    0.335422    0.470334     0.005394
PD2007   PD        0.628313    0.304967    0.485954     0.005394
PD2008   PD        0.594777    0.332124    0.422865     0.005394
PD2009   PD        0.654078    0.293887    0.445561     0.005394
PD2010   PD        0.649700    0.340602    0.464779     0.005394
NI2011   NI        0.691481    0.302213    0.470245     0.004307
PD2012   PD        0.675694    0.336537    0.436250     0.005394
NI2013   NI        0.727417    0.305536    0.436299     0.004307
NI2014   NI        0.724491    0.322868    0.475610     0.004307
PD2015   PD        0.758144    0.298357    0.475815     0.005394
NI2016   NI        0.744491    0.331923    0.444245     0.004307
NI2017   NI        0.811463    0.303854    0.411804     0.004307
NI2018   NI        0.817537    0.331184    0.479173     0.004307
NI2019   NI        0.862790    0.273404    0.468105     0.004307
NI2020   NI        0.816273    0.331767    0.438926     0.004307
NI2021   NI        0.012794    0.376803    0.417879     0.004307
NI2022   NI        0.000714    0.371386    0.464517     0.004307
NI2023   NI        0.060499    0.361545    0.472967     0.004307
NI2024   NI        0.066508    0.402944    0.447757     0.004307
PD2025   PD        0.102765    0.369145    0.437595     0.005394
NI2026   NI        0.094758    0.394813    0.470759     0.004307
PD2027   PD        0.132594    0.362363    0.469727     0.005394
PD2028   PD        0.121766    0.404764    0.431627     0.005394
PD2029   PD        0.169014    0.371240    0.442139     0.005394
PD2030   PD        0.172335    0.404025    0.478356     0.005394
PD2031   PD        0.209353    0.370139    0.478729     0.005394
PD2032   PD        0.192462    0.403140    0.433769     0.005394
PD2033   PD        0.222002    0.365925    0.433355     0.005394
PD2034   PD        0.228566    0.411676    0.460249     0.005394
PD2035   PD        0.268907    0.362947    0.469956     0.005394
PD2036   PD        0.255915    0.404286    0.451782     0.005394
PD2037   PD        0.299804    0.362802    0.431396     0.005394
PD2038   PD        0.286733    0.404865    0.454189     0.005394
PD2039   PD        0.326165    0.366343    0.471876     0.005394
PD2040   PD        0.345166    0.400967    0.448056     0.005394
PD2041   PD        0.374173    0.360935    0.438026     0.005394
PD2042   PD        0.377878    0.394326    0.480861     0.005394
PD2043   PD        0.408887    0.359640    0.468305     0.005394
PD2044   PD        0.422354    0.393842    0.428437     0.005394
PD2045   PD        0.440704    0.361756    0.436319     0.005394
PD2046   PD        0.457710    0.400054    0.474433     0.005394
PD2047   PD        0.477384    0.359139    0.467677     0.005394
PD2048   PD        0.484063    0.387838    0.437047     0.005394
PD2049   PD        0.515126    0.363392    0.460959     0.005394
PD2050   PD        0.507594    0.402567    0.487235     0.005394
PD2051   PD        0.522685    0.371117    0.461040     0.005394
PD2052   PD        0.530323    0.379858    0.450534     0.005394
PD2053   PD        0.579144    0.384679    0.443583     0.005394
PD2054   PD        0.589152    0.402302    0.469874     0.005394
PD2055   PD        0.597496    0.369886    0.459815     0.005394
PD2056   PD        0.626680    0.401276    0.437853     0.005394
PD2057   PD        0.631549    0.357595    0.427874     0.005394
PD2058   PD        0.656201    0.429447    0.480966     0.005394
PD2059   PD        0.691051    0.369404    0.472739     0.005394
PD2060   PD        0.685943    0.418498    0.424333     0.005394
PD2061   PD        0.727960    0.369712    0.441598     0.005394
PD2062   PD        0.718474    0.407102    0.474752     0.005394
NI2063   NI        0.755526    0.353934    0.492817     0.004307
NI2064   NI        0.762275    0.419876    0.424527     0.004307
NI2065   NI        0.792560    0.367459    0.460655     0.004307
NI2066   NI        0.802426    0.412902    0.473247     0.004307
NI2067   NI        0.835073    0.351257    0.482329     0.004307
NI2068   NI        0.816731    0.404586    0.440257     0.004307
NI2069   NI        0.840223    0.367948    0.458709     0.004307
NI2070   NI        0.843312    0.395395    0.497361     0.004307
NI2071   NI        0.041797    0.430177    0.428034     0.004307
NI2072   NI        0.046034    0.468429    0.481895     0.004307
NI2073   NI        0.065250    0.436408    0.475626     0.004307
NI2074   NI        0.066568    0.486046    0.456849     0.004307
NI2075   NI        0.088353    0.438779    0.430518     0.004307
NI2076   NI        0.092752    0.461666    0.463833     0.004307
NI2077   NI        0.129504    0.450538    0.479831     0.004307
NI2078   NI        0.118032    0.475865    0.419567     0.004307
PD2079   PD        0.165874    0.439482    0.448972     0.005394
PD2080   PD        0.170168    0.471721    0.482763     0.005394
PD2081   PD        0.207275    0.453409    0.466479     0.005394
PD2082   PD        0.193619    0.494430    0.447183     0.005394
PD2083   PD        0.225178    0.436964    0.435558     0.005394
PD2084   PD        0.229858    0.482736    0.473424     0.005394
PD2085   PD        0.268034    0.455314    0.477233     0.005394
PD2086   PD        0.264506    0.468134    0.431948     0.005394
PD2087   PD        0.291346    0.434806    0.439785     0.005394
PD2088   PD        0.312091    0.474076    0.480362     0.005394
PD2089   PD        0.331972    0.432933    0.469687     0.005394
PD2090   PD        0.345168    0.471296    0.445102     0.005394
PD2091   PD        0.367148    0.431614    0.435387     0.005394
PD2092   PD        0.348203    0.470309    0.491621     0.005394
PD2093   PD        0.410042    0.426059    0.463734     0.005394
PD2094   PD        0.405691    0.481407    0.426656     0.005394
PD2095   PD        0.456672    0.423443    0.446423     0.005394
PD2096   PD        0.434662    0.466727    0.464417     0.005394
PD2097   PD        0.486643    0.441602    0.471762     0.005394
PD2098   PD        0.479308    0.464003    0.436829     0.005394
PD2099   PD        0.520071    0.438268    0.435757     0.005394
PD2100   PD        0.505636    0.468613    0.470765     0.005394
PD2101   PD        0.549022    0.417899    0.492159     0.005394
PD2102   PD        0.556688    0.466530    0.430446     0.005394
PD2103   PD        0.601260    0.427310    0.439905     0.005394
PD2104   PD        0.587086    0.471088    0.467388     0.005394
PD2105   PD        0.615934    0.433498    0.496576     0.005394
PD2106   PD        0.623637    0.470898    0.434521     0.005394
PD2107   PD        0.644882    0.435066    0.445779     0.005394
PD2108   PD        0.655637    0.471651    0.473049     0.005394
PD2109   PD        0.690937    0.444808    0.461024     0.005394
PD2110   PD        0.700866    0.468432    0.421739     0.005394
PD2111   PD        0.725390    0.444095    0.439731     0.005394
PD2112   PD        0.725591    0.473226    0.475002     0.005394
NI2113   NI        0.760303    0.463774    0.486980     0.004307
PD2114   PD        0.762536    0.471531    0.443252     0.005394
NI2115   NI        0.796063    0.439531    0.446228     0.004307
PD2116   PD        0.793660    0.473407    0.481382     0.005394
NI2117   NI        0.846517    0.400892    0.475139     0.004307
NI2118   NI        0.822364    0.493433    0.458321     0.004307
NI2119   NI        0.854085    0.435681    0.444343     0.004307
NI2120   NI        0.858263    0.469794    0.477975     0.004307
NI2121   NI        0.056936    0.503326    0.442631     0.004307
NI2122   NI        0.067480    0.503401    0.477305     0.004307
NI2123   NI        0.065440    0.540343    0.442694     0.004307
PD2124   PD        0.108996    0.499769    0.437835     0.005394
NI2125   NI        0.097832    0.543822    0.473690     0.004307
PD2126   PD        0.148535    0.483941    0.462487     0.005394
PD2127   PD        0.131965    0.540516    0.438449     0.005394
NI2128   NI        0.156272    0.507250    0.427198     0.004307
PD2129   PD        0.174277    0.545562    0.468014     0.005394
PD2130   PD        0.191035    0.502036    0.478721     0.005394
PD2131   PD        0.201459    0.540540    0.433403     0.005394
PD2132   PD        0.261918    0.512256    0.444989     0.005394
NI2133   NI        0.227842    0.542030    0.464152     0.004307
PD2134   PD        0.277190    0.500962    0.498827     0.005394
PD2135   PD        0.267192    0.548009    0.437002     0.005394
PD2136   PD        0.298525    0.501076    0.436109     0.005394
PD2137   PD        0.296701    0.535365    0.470799     0.005394
PD2138   PD        0.332851    0.516081    0.483904     0.005394
PD2139   PD        0.332175    0.535168    0.440709     0.005394
PD2140   PD        0.372693    0.511528    0.443553     0.005394
PD2141   PD        0.386822    0.536110    0.481614     0.005394
PD2142   PD        0.405475    0.512578    0.476425     0.005394
PD2143   PD        0.406177    0.547745    0.442066     0.005394
PD2144   PD        0.435806    0.502144    0.435504     0.005394
PD2145   PD        0.480919    0.542622    0.473760     0.005394
PD2146   PD        0.472382    0.505294    0.467295     0.005394
PD2147   PD        0.469470    0.535888    0.429173     0.005394
PD2148   PD        0.512329    0.481926    0.458408     0.005394
PD2149   PD        0.503805    0.537876    0.466905     0.005394
PD2150   PD        0.557008    0.513741    0.498142     0.005394
PD2151   PD        0.548747    0.549087    0.424519     0.005394
PD2152   PD        0.581417    0.495198    0.424592     0.005394
PD2153   PD        0.587607    0.540758    0.472349     0.005394
PD2154   PD        0.621619    0.507772    0.464834     0.005394
PD2155   PD        0.622354    0.540913    0.437376     0.005394
PD2156   PD        0.661375    0.498601    0.442560     0.005394
PD2157   PD        0.654762    0.540196    0.473425     0.005394
PD2158   PD        0.700021    0.489200    0.471030     0.005394
PD2159   PD        0.678297    0.542095    0.435916     0.005394
NI2160   NI        0.718337    0.510683    0.433125     0.004307
PD2161   PD        0.723564    0.539033    0.476537     0.005394
PD2162   PD        0.757583    0.508215    0.478757     0.005394
PD2163   PD        0.759687    0.539752    0.443422     0.005394
NI2164   NI        0.791431    0.515883    0.431514     0.004307
PD2165   PD        0.793139    0.541441    0.478878     0.005394
NI2166   NI        0.827016    0.507249    0.482343     0.004307
NI2167   NI        0.828202    0.540945    0.446434     0.004307
NI2168   NI        0.864404    0.510907    0.451376     0.004307
NI2169   NI        0.064842    0.577410    0.475801     0.004307
NI2170   NI        0.065825    0.610407    0.441270     0.004307
PD2171   PD        0.098949    0.576217    0.440368     0.005394
NI2172   NI        0.085163    0.639712    0.473619     0.004307
PD2173   PD        0.136128    0.575614    0.474333     0.005394
NI2174   NI        0.099663    0.576329    0.440792     0.004307
PD2175   PD        0.165652    0.573147    0.435539     0.005394
NI2176   NI        0.160431    0.611277    0.489737     0.004307
PD2177   PD        0.203096    0.581747    0.478792     0.005394
PD2178   PD        0.202599    0.604502    0.437340     0.005394
PD2179   PD        0.235552    0.572831    0.432724     0.005394
PD2180   PD        0.236155    0.601550    0.469903     0.005394
PD2181   PD        0.249880    0.595209    0.471108     0.005394
PD2182   PD        0.272365    0.595044    0.445605     0.005394
PD2183   PD        0.303068    0.569233    0.421002     0.005394
PD2184   PD        0.300592    0.607245    0.476656     0.005394
PD2185   PD        0.330635    0.570833    0.471306     0.005394
PD2186   PD        0.332886    0.623682    0.437539     0.005394
PD2187   PD        0.364481    0.588815    0.441418     0.005394
PD2188   PD        0.359252    0.591077    0.462522     0.005394
PD2189   PD        0.402969    0.585994    0.472628     0.005394
PD2190   PD        0.404810    0.608502    0.429023     0.005394
PD2191   PD        0.435911    0.559499    0.453051     0.005394
PD2192   PD        0.443114    0.612914    0.478043     0.005394
PD2193   PD        0.480412    0.580938    0.478843     0.005394
PD2194   PD        0.479057    0.612457    0.443948     0.005394
PD2195   PD        0.511642    0.578562    0.442294     0.005394
PD2196   PD        0.519250    0.603890    0.479229     0.005394
PD2197   PD        0.557032    0.575700    0.487356     0.005394
PD2198   PD        0.560581    0.616998    0.426190     0.005394
PD2199   PD        0.580569    0.566163    0.444515     0.005394
PD2200   PD        0.570282    0.622489    0.483413     0.005394
PD2201   PD        0.622824    0.570936    0.460465     0.005394
PD2202   PD        0.613136    0.614956    0.449071     0.005394
PD2203   PD        0.656745    0.573298    0.440074     0.005394
PD2204   PD        0.642518    0.608698    0.480645     0.005394
PD2205   PD        0.689151    0.573087    0.475597     0.005394
PD2206   PD        0.674285    0.606850    0.443795     0.005394
PD2207   PD        0.724243    0.573341    0.443299     0.005394
NI2208   NI        0.722925    0.607183    0.477448     0.004307
PD2209   PD        0.756817    0.574728    0.476775     0.005394
PD2210   PD        0.758063    0.609149    0.443178     0.005394
NI2211   NI        0.794576    0.573798    0.444029     0.004307
NI2212   NI        0.787139    0.607435    0.475873     0.004307
NI2213   NI        0.802863    0.563576    0.485193     0.004307
NI2214   NI        0.827081    0.610578    0.447863     0.004307
NI2215   NI        0.089086    0.645981    0.426114     0.004307
NI2216   NI        0.102050    0.678665    0.476017     0.004307
NI2217   NI        0.134797    0.642634    0.474493     0.004307
NI2218   NI        0.111345    0.678027    0.456238     0.004307
NI2219   NI        0.164811    0.651094    0.452073     0.004307
NI2220   NI        0.164599    0.679616    0.469108     0.004307
NI2221   NI        0.173089    0.675190    0.475341     0.004307
NI2222   NI        0.184301    0.674300    0.445597     0.004307
PD2223   PD        0.212390    0.649668    0.450299     0.005394
PD2224   PD        0.244366    0.668432    0.478629     0.005394
PD2225   PD        0.256169    0.645258    0.467611     0.005394
PD2226   PD        0.270541    0.679673    0.440159     0.005394
PD2227   PD        0.292801    0.639148    0.441123     0.005394
PD2228   PD        0.300787    0.673696    0.477952     0.005394
PD2229   PD        0.325340    0.651388    0.476049     0.005394
PD2230   PD        0.338394    0.692860    0.429098     0.005394
PD2231   PD        0.357480    0.656585    0.442738     0.005394
PD2232   PD        0.378003    0.684319    0.473499     0.005394
PD2233   PD        0.410621    0.651789    0.476699     0.005394
PD2234   PD        0.412194    0.685057    0.441416     0.005394
PD2235   PD        0.440495    0.664874    0.417558     0.005394
PD2236   PD        0.446263    0.684092    0.474954     0.005394
PD2237   PD        0.469460    0.658422    0.469079     0.005394
PD2238   PD        0.474878    0.680365    0.425596     0.005394
PD2239   PD        0.508711    0.647659    0.440653     0.005394
PD2240   PD        0.508821    0.685031    0.461401     0.005394
NI2241   NI        0.557397    0.661057    0.471289     0.004307
PD2242   PD        0.555251    0.687752    0.451089     0.005394
PD2243   PD        0.586212    0.652236    0.445228     0.005394
PD2244   PD        0.585469    0.684870    0.487882     0.005394
PD2245   PD        0.615264    0.639391    0.491095     0.005394
NI2246   NI        0.615011    0.696956    0.432313     0.004307
NI2247   NI        0.638855    0.639302    0.449459     0.004307
NI2248   NI        0.654239    0.674305    0.485600     0.004307
NI2249   NI        0.703838    0.665410    0.465641     0.004307
NI2250   NI        0.679359    0.674098    0.440074     0.004307
NI2251   NI        0.723815    0.642244    0.440249     0.004307
PD2252   PD        0.715933    0.675061    0.471873     0.005394
NI2253   NI        0.755280    0.643613    0.474524     0.004307
NI2254   NI        0.750618    0.708436    0.466239     0.004307
NI2255   NI        0.756609    0.626006    0.454481     0.004307
NI2256   NI        0.780059    0.666873    0.447796     0.004307
NI2257   NI        0.101597    0.699864    0.477574     0.004307
NI2258   NI        0.182018    0.721748    0.457860     0.004307
NI2259   NI        0.174053    0.730949    0.475482     0.004307
NI2260   NI        0.207121    0.727650    0.476370     0.004307
NI2261   NI        0.205005    0.745901    0.442477     0.004307
NI2262   NI        0.222043    0.704807    0.437484     0.004307
NI2263   NI        0.238674    0.743321    0.474198     0.004307
PD2264   PD        0.269378    0.709814    0.474261     0.005394
NI2265   NI        0.271919    0.739432    0.439221     0.004307
PD2266   PD        0.302461    0.710886    0.452260     0.005394
NI2267   NI        0.284683    0.754447    0.465305     0.004307
PD2268   PD        0.344569    0.717494    0.469961     0.005394
NI2269   NI        0.345243    0.754431    0.439430     0.004307
PD2270   PD        0.372948    0.709078    0.449540     0.005394
PD2271   PD        0.377820    0.752179    0.475144     0.005394
PD2272   PD        0.412211    0.717979    0.474923     0.005394
PD2273   PD        0.413192    0.752939    0.440887     0.005394
PD2274   PD        0.446528    0.717324    0.439988     0.005394
PD2275   PD        0.446214    0.751794    0.474989     0.005394
PD2276   PD        0.480031    0.718752    0.474967     0.005394
PD2277   PD        0.480962    0.752766    0.441363     0.005394
PD2278   PD        0.514526    0.719703    0.440307     0.005394
PD2279   PD        0.513992    0.753160    0.476906     0.005394
PD2280   PD        0.547072    0.716982    0.475735     0.005394
PD2281   PD        0.548179    0.752898    0.441099     0.005394
NI2282   NI        0.592812    0.738823    0.426462     0.004307
NI2283   NI        0.593370    0.750493    0.491578     0.004307
PD2284   PD        0.616768    0.718034    0.474169     0.005394
NI2285   NI        0.615068    0.744870    0.436842     0.004307
NI2286   NI        0.650589    0.735102    0.429368     0.004307
NI2287   NI        0.639141    0.753488    0.475912     0.004307
NI2288   NI        0.682229    0.710603    0.469487     0.004307
NI2289   NI        0.694704    0.742094    0.458744     0.004307
NI2290   NI        0.721595    0.711608    0.440655     0.004307
NI2291   NI        0.720015    0.746505    0.473032     0.004307
NI2292   NI        0.761258    0.691953    0.457881     0.004307
NI2293   NI        0.193266    0.775045    0.475544     0.004307
NI2294   NI        0.241111    0.778209    0.437994     0.004307
NI2295   NI        0.259010    0.802833    0.476832     0.004307
NI2296   NI        0.272997    0.813473    0.440072     0.004307
NI2297   NI        0.294883    0.787269    0.423037     0.004307
NI2298   NI        0.313832    0.830362    0.492108     0.004307
NI2299   NI        0.322204    0.779495    0.478617     0.004307
NI2300   NI        0.331185    0.837414    0.448971     0.004307
NI2301   NI        0.368253    0.783309    0.407410     0.004307
NI2302   NI        0.386740    0.826147    0.462749     0.004307
PD2303   PD        0.413903    0.787718    0.474062     0.005394
PD2304   PD        0.412956    0.820160    0.438851     0.005394
PD2305   PD        0.447018    0.786377    0.440017     0.005394
PD2306   PD        0.445940    0.820707    0.473719     0.005394
PD2307   PD        0.480902    0.787686    0.475273     0.005394
NI2308   NI        0.480486    0.820217    0.441564     0.004307
PD2309   PD        0.515009    0.784976    0.441350     0.005394
PD2310   PD        0.514664    0.822184    0.478179     0.005394
PD2311   PD        0.548374    0.787802    0.477206     0.005394
NI2312   NI        0.548629    0.822729    0.443938     0.004307
NI2313   NI        0.574173    0.780343    0.440138     0.004307
NI2314   NI        0.573386    0.823410    0.461402     0.004307
NI2315   NI        0.616647    0.785249    0.474405     0.004307
NI2316   NI        0.611656    0.808294    0.436738     0.004307
NI2317   NI        0.651344    0.783251    0.440403     0.004307
NI2318   NI        0.683029    0.769799    0.472644     0.004307
NI2319   NI        0.358329    0.873719    0.428908     0.004307
NI2320   NI        0.412904    0.864401    0.500192     0.004307
NI2321   NI        0.429627    0.860245    0.417530     0.004307
NI2322   NI        0.480587    0.855841    0.476542     0.004307
NI2323   NI        0.534252    0.848171    0.448763     0.004307
NI2324   NI        0.288411    0.048659    0.523654     0.004307
NI2325   NI        0.294590    0.043786    0.578171     0.004307
PD2326   PD        0.336958    0.056020    0.507189     0.005394
PD2327   PD        0.371630    0.057062    0.542189     0.005394
PD2328   PD        0.404150    0.054940    0.508225     0.005394
NI2329   NI        0.438991    0.020785    0.508082     0.004307
PD2330   PD        0.440216    0.055196    0.541284     0.005394
NI2331   NI        0.473114    0.052878    0.508581     0.004307
NI2332   NI        0.507577    0.056948    0.540206     0.004307
NI2333   NI        0.545512    0.060295    0.505662     0.004307
NI2334   NI        0.573287    0.050930    0.517908     0.004307
NI2335   NI        0.610819    0.061130    0.502025     0.004307
NI2336   NI        0.193272    0.102303    0.525458     0.004307
PD2337   PD        0.234757    0.088369    0.507946     0.005394
PD2338   PD        0.233034    0.123989    0.540837     0.005394
PD2339   PD        0.268704    0.089281    0.541453     0.005394
NI2340   NI        0.249567    0.102085    0.498265     0.004307
PD2341   PD        0.303389    0.089597    0.506538     0.005394
PD2342   PD        0.301982    0.123820    0.540927     0.005394
PD2343   PD        0.337459    0.090065    0.541450     0.005394
PD2344   PD        0.336718    0.124412    0.507961     0.005394
PD2345   PD        0.370080    0.091269    0.506978     0.005394
PD2346   PD        0.371226    0.124729    0.541365     0.005394
PD2347   PD        0.405416    0.090748    0.541034     0.005394
PD2348   PD        0.406247    0.124387    0.507177     0.005394
NI2349   NI        0.441368    0.068753    0.519767     0.004307
NI2350   NI        0.434942    0.115269    0.517719     0.004307
PD2351   PD        0.473457    0.089285    0.541195     0.005394
PD2352   PD        0.472183    0.123494    0.505549     0.005394
PD2353   PD        0.509348    0.093907    0.509932     0.005394
PD2354   PD        0.508873    0.123469    0.540261     0.005394
NI2355   NI        0.543061    0.089728    0.538550     0.004307
NI2356   NI        0.548855    0.127218    0.518931     0.004307
NI2357   NI        0.600102    0.062533    0.527232     0.004307
NI2358   NI        0.579996    0.130986    0.538694     0.004307
NI2359   NI        0.601263    0.077104    0.542436     0.004307
NI2360   NI        0.611588    0.098070    0.471824     0.004307
NI2361   NI        0.642311    0.098161    0.507892     0.004307
NI2362   NI        0.646009    0.128390    0.542617     0.004307
NI2363   NI        0.719406    0.106392    0.504603     0.004307
PD2364   PD        0.132486    0.194519    0.504480     0.005394
PD2365   PD        0.165203    0.156470    0.506811     0.005394
PD2366   PD        0.166179    0.192887    0.539689     0.005394
PD2367   PD        0.199725    0.156400    0.542164     0.005394
PD2368   PD        0.197671    0.193461    0.508413     0.005394
PD2369   PD        0.233799    0.156960    0.505592     0.005394
PD2370   PD        0.233541    0.190754    0.539104     0.005394
PD2371   PD        0.268811    0.158053    0.540345     0.005394
NI2372   NI        0.265905    0.188565    0.509027     0.004307
PD2373   PD        0.303040    0.157645    0.505220     0.005394
PD2374   PD        0.302266    0.192752    0.541418     0.005394
PD2375   PD        0.334847    0.157725    0.540861     0.005394
PD2376   PD        0.335644    0.192319    0.506315     0.005394
PD2377   PD        0.370099    0.158597    0.506938     0.005394
PD2378   PD        0.370198    0.193141    0.540660     0.005394
PD2379   PD        0.404354    0.158354    0.538498     0.005394
PD2380   PD        0.403582    0.190799    0.505903     0.005394
PD2381   PD        0.439259    0.158044    0.504510     0.005394
PD2382   PD        0.438502    0.193712    0.539175     0.005394
PD2383   PD        0.472731    0.158820    0.539656     0.005394
PD2384   PD        0.480958    0.196843    0.521298     0.005394
PD2385   PD        0.507914    0.160470    0.507414     0.005394
PD2386   PD        0.512830    0.170515    0.545243     0.005394
NI2387   NI        0.543424    0.166434    0.539894     0.004307
PD2388   PD        0.543316    0.196717    0.520329     0.005394
NI2389   NI        0.575680    0.179901    0.498079     0.004307
NI2390   NI        0.596813    0.185885    0.558162     0.004307
NI2391   NI        0.616495    0.166448    0.548662     0.004307
PD2392   PD        0.607977    0.194027    0.510694     0.005394
NI2393   NI        0.655668    0.138681    0.527188     0.004307
PD2394   PD        0.650424    0.182583    0.527653     0.005394
NI2395   NI        0.677260    0.143637    0.537505     0.004307
NI2396   NI        0.682684    0.188736    0.493161     0.004307
NI2397   NI        0.715445    0.156106    0.505163     0.004307
NI2398   NI        0.722266    0.174488    0.566549     0.004307
NI2399   NI        0.746087    0.185846    0.526114     0.004307
NI2400   NI        0.051024    0.287843    0.513671     0.004307
NI2401   NI        0.105737    0.226844    0.526361     0.004307
NI2402   NI        0.088658    0.246744    0.555885     0.004307
NI2403   NI        0.121033    0.213882    0.569096     0.004307
PD2404   PD        0.131884    0.263098    0.504442     0.005394
PD2405   PD        0.166610    0.226524    0.504925     0.005394
PD2406   PD        0.165375    0.260638    0.539395     0.005394
PD2407   PD        0.199796    0.224920    0.540326     0.005394
PD2408   PD        0.200058    0.261932    0.506551     0.005394
PD2409   PD        0.234370    0.227051    0.507169     0.005394
PD2410   PD        0.235236    0.261998    0.541511     0.005394
PD2411   PD        0.265611    0.224396    0.537975     0.005394
PD2412   PD        0.267793    0.260715    0.507290     0.005394
PD2413   PD        0.302986    0.225217    0.505122     0.005394
PD2414   PD        0.292810    0.242005    0.564944     0.005394
PD2415   PD        0.335609    0.225367    0.539588     0.005394
PD2416   PD        0.337035    0.260308    0.504052     0.005394
PD2417   PD        0.369915    0.224474    0.506090     0.005394
PD2418   PD        0.368284    0.262135    0.539544     0.005394
PD2419   PD        0.405872    0.228010    0.539135     0.005394
PD2420   PD        0.404291    0.262449    0.505477     0.005394
PD2421   PD        0.438612    0.226868    0.504465     0.005394
PD2422   PD        0.437457    0.261423    0.538069     0.005394
PD2423   PD        0.473079    0.227188    0.538830     0.005394
PD2424   PD        0.474274    0.263520    0.506143     0.005394
PD2425   PD        0.507763    0.233951    0.506760     0.005394
PD2426   PD        0.517629    0.267608    0.538795     0.005394
PD2427   PD        0.545154    0.232707    0.555980     0.005394
PD2428   PD        0.561027    0.259143    0.514773     0.005394
PD2429   PD        0.580113    0.218802    0.498213     0.005394
PD2430   PD        0.565238    0.246423    0.549941     0.005394
PD2431   PD        0.628150    0.221071    0.545733     0.005394
PD2432   PD        0.622031    0.272328    0.518727     0.005394
NI2433   NI        0.669150    0.224141    0.520150     0.004307
NI2434   NI        0.663879    0.252578    0.556232     0.004307
NI2435   NI        0.705179    0.241643    0.518304     0.004307
NI2436   NI        0.703417    0.251253    0.501764     0.004307
NI2437   NI        0.713541    0.233444    0.506195     0.004307
NI2438   NI        0.721991    0.264448    0.544671     0.004307
NI2439   NI        0.757292    0.231642    0.549570     0.004307
NI2440   NI        0.745262    0.267028    0.507710     0.004307
NI2441   NI        0.793509    0.232835    0.517867     0.004307
NI2442   NI        0.790195    0.264329    0.545025     0.004307
NI2443   NI        0.828216    0.267255    0.521401     0.004307
NI2444   NI        0.064229    0.299446    0.536450     0.004307
NI2445   NI        0.065926    0.333304    0.504679     0.004307
PD2446   PD        0.098869    0.298243    0.504734     0.005394
PD2447   PD        0.098277    0.329296    0.540627     0.005394
PD2448   PD        0.131472    0.294307    0.539911     0.005394
NI2449   NI        0.105337    0.329178    0.482094     0.004307
PD2450   PD        0.166368    0.293969    0.507629     0.005394
PD2451   PD        0.165991    0.329336    0.540596     0.005394
PD2452   PD        0.200973    0.295809    0.540622     0.005394
PD2453   PD        0.198640    0.328134    0.505322     0.005394
PD2454   PD        0.233802    0.294530    0.507014     0.005394
PD2455   PD        0.235212    0.329644    0.542311     0.005394
PD2456   PD        0.269165    0.294719    0.540001     0.005394
PD2457   PD        0.267517    0.328649    0.507220     0.005394
PD2458   PD        0.301737    0.295011    0.505945     0.005394
PD2459   PD        0.301038    0.340187    0.560835     0.005394
PD2460   PD        0.347176    0.284886    0.520011     0.005394
PD2461   PD        0.344365    0.344179    0.508543     0.005394
PD2462   PD        0.402827    0.297378    0.538590     0.005394
PD2463   PD        0.370755    0.329383    0.537568     0.005394
PD2464   PD        0.403333    0.319841    0.534685     0.005394
PD2465   PD        0.409566    0.338567    0.531750     0.005394
PD2466   PD        0.440035    0.294244    0.505189     0.005394
PD2467   PD        0.424176    0.326844    0.530221     0.005394
PD2468   PD        0.473528    0.280510    0.543494     0.005394
PD2469   PD        0.465516    0.333370    0.505849     0.005394
PD2470   PD        0.514026    0.291086    0.501674     0.005394
PD2471   PD        0.506468    0.332045    0.537788     0.005394
PD2472   PD        0.550299    0.300999    0.539455     0.005394
PD2473   PD        0.557682    0.321769    0.516085     0.005394
PD2474   PD        0.585312    0.301714    0.504320     0.005394
PD2475   PD        0.578537    0.314719    0.549285     0.005394
PD2476   PD        0.598250    0.306656    0.539709     0.005394
PD2477   PD        0.628412    0.318200    0.503249     0.005394
PD2478   PD        0.670375    0.304165    0.511068     0.005394
PD2479   PD        0.655852    0.334084    0.540009     0.005394
NI2480   NI        0.700679    0.279626    0.541866     0.004307
PD2481   PD        0.691079    0.334199    0.507533     0.005394
NI2482   NI        0.723963    0.297837    0.509765     0.004307
PD2483   PD        0.703453    0.324338    0.539885     0.005394
NI2484   NI        0.774433    0.288902    0.529944     0.004307
PD2485   PD        0.759010    0.333725    0.509194     0.005394
NI2486   NI        0.779231    0.299062    0.518745     0.004307
NI2487   NI        0.816197    0.344802    0.548705     0.004307
NI2488   NI        0.827520    0.312825    0.550164     0.004307
NI2489   NI        0.840786    0.316519    0.517852     0.004307
NI2490   NI        0.063121    0.362661    0.542666     0.004307
PD2491   PD        0.067081    0.402678    0.506283     0.005394
PD2492   PD        0.100148    0.365163    0.506962     0.005394
NI2493   NI        0.097358    0.395758    0.541864     0.004307
PD2494   PD        0.133473    0.365431    0.542749     0.005394
PD2495   PD        0.097210    0.396089    0.542412     0.005394
PD2496   PD        0.164705    0.362431    0.503425     0.005394
PD2497   PD        0.165669    0.398877    0.545315     0.005394
PD2498   PD        0.198202    0.363275    0.540716     0.005394
PD2499   PD        0.188130    0.412377    0.506436     0.005394
PD2500   PD        0.221454    0.374600    0.526590     0.005394
PD2501   PD        0.229908    0.397419    0.542443     0.005394
PD2502   PD        0.265276    0.364050    0.542109     0.005394
PD2503   PD        0.272730    0.407398    0.521251     0.005394
PD2504   PD        0.302951    0.373176    0.513861     0.005394
PD2505   PD        0.297124    0.403912    0.550331     0.005394
PD2506   PD        0.333697    0.365343    0.540043     0.005394
PD2507   PD        0.316698    0.394060    0.508035     0.005394
PD2508   PD        0.371336    0.368734    0.522226     0.005394
PD2509   PD        0.389549    0.403203    0.549574     0.005394
PD2510   PD        0.410134    0.363523    0.553020     0.005394
PD2511   PD        0.419611    0.412482    0.509482     0.005394
PD2512   PD        0.448911    0.378003    0.496542     0.005394
PD2513   PD        0.436723    0.395139    0.555714     0.005394
PD2514   PD        0.490757    0.360081    0.538274     0.005394
PD2515   PD        0.472043    0.412051    0.516698     0.005394
PD2516   PD        0.495344    0.370998    0.502601     0.005394
PD2517   PD        0.519646    0.406279    0.533861     0.005394
PD2518   PD        0.555920    0.378177    0.546463     0.005394
PD2519   PD        0.553567    0.404258    0.504349     0.005394
PD2520   PD        0.586960    0.370040    0.506401     0.005394
PD2521   PD        0.567107    0.397489    0.552053     0.005394
PD2522   PD        0.621847    0.368210    0.538980     0.005394
PD2523   PD        0.623456    0.401056    0.500495     0.005394
PD2524   PD        0.648523    0.378050    0.506785     0.005394
PD2525   PD        0.656181    0.403882    0.540789     0.005394
PD2526   PD        0.689429    0.369447    0.542585     0.005394
PD2527   PD        0.690644    0.402247    0.507795     0.005394
PD2528   PD        0.725069    0.368496    0.510044     0.005394
PD2529   PD        0.721900    0.402786    0.543343     0.005394
NI2530   NI        0.764761    0.366913    0.566151     0.004307
NI2531   NI        0.773053    0.426951    0.506789     0.004307
NI2532   NI        0.793917    0.368692    0.513063     0.004307
PD2533   PD        0.791285    0.402547    0.546586     0.005394
NI2534   NI        0.825739    0.369112    0.547288     0.004307
NI2535   NI        0.828126    0.404803    0.515109     0.004307
NI2536   NI        0.031567    0.433426    0.509102     0.004307
NI2537   NI        0.070743    0.437991    0.538375     0.004307
NI2538   NI        0.063696    0.464014    0.501701     0.004307
NI2539   NI        0.099499    0.431503    0.502423     0.004307
NI2540   NI        0.078854    0.485795    0.537627     0.004307
NI2541   NI        0.120585    0.455613    0.537606     0.004307
NI2542   NI        0.125299    0.487474    0.502853     0.004307
PD2543   PD        0.166220    0.435047    0.512671     0.005394
PD2544   PD        0.164350    0.468152    0.550515     0.005394
PD2545   PD        0.198608    0.434221    0.548401     0.005394
PD2546   PD        0.198728    0.466499    0.502992     0.005394
PD2547   PD        0.231591    0.431532    0.502044     0.005394
PD2548   PD        0.228063    0.473642    0.546630     0.005394
PD2549   PD        0.262909    0.431881    0.535793     0.005394
PD2550   PD        0.269239    0.474856    0.520317     0.005394
PD2551   PD        0.292069    0.435696    0.505970     0.005394
PD2552   PD        0.294446    0.467746    0.541121     0.005394
PD2553   PD        0.348402    0.436020    0.547343     0.005394
PD2554   PD        0.338585    0.479423    0.514167     0.005394
PD2555   PD        0.367897    0.438311    0.519263     0.005394
PD2556   PD        0.374764    0.479242    0.547029     0.005394
PD2557   PD        0.408379    0.444592    0.546595     0.005394
PD2558   PD        0.413888    0.460303    0.506343     0.005394
PD2559   PD        0.440505    0.446061    0.509956     0.005394
PD2560   PD        0.464664    0.472245    0.541390     0.005394
PD2561   PD        0.475332    0.433602    0.557954     0.005394
PD2562   PD        0.486117    0.474239    0.499911     0.005394
PD2563   PD        0.522573    0.442041    0.504753     0.005394
PD2564   PD        0.510388    0.478172    0.547253     0.005394
PD2565   PD        0.554968    0.438774    0.535252     0.005394
PD2566   PD        0.546137    0.471348    0.522179     0.005394
PD2567   PD        0.588011    0.437695    0.502528     0.005394
PD2568   PD        0.583312    0.479583    0.550402     0.005394
PD2569   PD        0.635301    0.447360    0.554880     0.005394
PD2570   PD        0.613232    0.478049    0.512074     0.005394
PD2571   PD        0.641828    0.439875    0.510372     0.005394
PD2572   PD        0.654689    0.470992    0.538394     0.005394
PD2573   PD        0.701021    0.449372    0.565769     0.005394
PD2574   PD        0.693713    0.492284    0.501950     0.005394
PD2575   PD        0.709524    0.425110    0.499586     0.005394
NI2576   NI        0.715134    0.461715    0.533189     0.004307
NI2577   NI        0.774785    0.420411    0.552022     0.004307
PD2578   PD        0.759478    0.471323    0.510375     0.005394
PD2579   PD        0.791872    0.437303    0.513344     0.005394
PD2580   PD        0.789520    0.471157    0.546796     0.005394
NI2581   NI        0.825642    0.437907    0.548216     0.004307
NI2582   NI        0.825789    0.472521    0.514252     0.004307
NI2583   NI        0.860968    0.440319    0.515306     0.004307
NI2584   NI        0.053233    0.499144    0.553812     0.004307
NI2585   NI        0.085876    0.532533    0.485443     0.004307
NI2586   NI        0.108514    0.511352    0.530940     0.004307
NI2587   NI        0.084585    0.550409    0.545156     0.004307
NI2588   NI        0.139222    0.502102    0.537211     0.004307
NI2589   NI        0.121868    0.537748    0.518489     0.004307
PD2590   PD        0.163239    0.517088    0.498086     0.005394
NI2591   NI        0.173820    0.533126    0.542905     0.004307
PD2592   PD        0.193976    0.506197    0.546574     0.005394
PD2593   PD        0.203602    0.542903    0.504986     0.005394
PD2594   PD        0.234246    0.510912    0.521923     0.005394
PD2595   PD        0.241973    0.530926    0.541595     0.005394
PD2596   PD        0.260907    0.503500    0.542906     0.005394
PD2597   PD        0.267108    0.542232    0.518720     0.005394
PD2598   PD        0.299951    0.509973    0.520423     0.005394
PD2599   PD        0.287818    0.532478    0.561986     0.005394
PD2600   PD        0.340687    0.513575    0.545570     0.005394
PD2601   PD        0.332800    0.536029    0.503913     0.005394
PD2602   PD        0.365468    0.506888    0.515559     0.005394
PD2603   PD        0.375448    0.546799    0.542182     0.005394
PD2604   PD        0.412682    0.512943    0.543659     0.005394
PD2605   PD        0.417457    0.538896    0.521314     0.005394
PD2606   PD        0.443587    0.512769    0.506082     0.005394
PD2607   PD        0.445510    0.549308    0.546445     0.005394
PD2608   PD        0.479840    0.513069    0.547545     0.005394
PD2609   PD        0.482610    0.540998    0.498762     0.005394
PD2610   PD        0.489356    0.516270    0.508493     0.005394
PD2611   PD        0.514044    0.547659    0.549501     0.005394
PD2612   PD        0.545371    0.513149    0.544631     0.005394
PD2613   PD        0.551027    0.537065    0.501133     0.005394
PD2614   PD        0.594966    0.486683    0.493284     0.005394
PD2615   PD        0.581357    0.540832    0.557927     0.005394
PD2616   PD        0.624582    0.507565    0.547109     0.005394
PD2617   PD        0.620096    0.527651    0.506888     0.005394
PD2618   PD        0.652827    0.506477    0.506230     0.005394
PD2619   PD        0.648478    0.543470    0.549449     0.005394
NI2620   NI        0.703615    0.491173    0.541540     0.004307
NI2621   NI        0.698724    0.550751    0.502506     0.004307
PD2622   PD        0.723462    0.506988    0.511273     0.005394
PD2623   PD        0.718301    0.541027    0.545121     0.005394
NI2624   NI        0.784292    0.502826    0.509295     0.004307
PD2625   PD        0.756826    0.541448    0.513521     0.005394
PD2626   PD        0.790438    0.508435    0.515062     0.005394
NI2627   NI        0.789452    0.541322    0.547770     0.004307
NI2628   NI        0.822849    0.507390    0.549925     0.004307
NI2629   NI        0.818841    0.530499    0.516407     0.004307
NI2630   NI        0.071326    0.575439    0.545534     0.004307
NI2631   NI        0.061813    0.592902    0.497832     0.004307
NI2632   NI        0.100139    0.576973    0.508546     0.004307
NI2633   NI        0.088475    0.599269    0.537029     0.004307
NI2634   NI        0.130894    0.591210    0.522271     0.004307
NI2635   NI        0.132907    0.613819    0.504616     0.004307
NI2636   NI        0.154385    0.574210    0.519650     0.004307
NI2637   NI        0.168459    0.616870    0.538950     0.004307
PD2638   PD        0.192619    0.575019    0.550012     0.005394
PD2639   PD        0.198749    0.610169    0.518262     0.005394
PD2640   PD        0.236917    0.579313    0.513433     0.005394
PD2641   PD        0.228582    0.608992    0.552320     0.005394
PD2642   PD        0.261915    0.575227    0.554409     0.005394
PD2643   PD        0.265928    0.608722    0.519671     0.005394
PD2644   PD        0.294702    0.567498    0.504341     0.005394
PD2645   PD        0.296399    0.610947    0.558437     0.005394
PD2646   PD        0.317561    0.567356    0.546828     0.005394
PD2647   PD        0.341914    0.613556    0.501381     0.005394
PD2648   PD        0.379756    0.578990    0.503186     0.005394
PD2649   PD        0.367258    0.607803    0.558720     0.005394
PD2650   PD        0.407550    0.581489    0.542167     0.005394
PD2651   PD        0.409524    0.616267    0.510124     0.005394
PD2652   PD        0.460155    0.557240    0.515264     0.005394
PD2653   PD        0.442619    0.616330    0.544801     0.005394
PD2654   PD        0.479996    0.582484    0.547179     0.005394
PD2655   PD        0.479726    0.609949    0.493340     0.005394
PD2656   PD        0.513688    0.581972    0.514661     0.005394
PD2657   PD        0.513546    0.616498    0.544349     0.005394
PD2658   PD        0.555478    0.566256    0.529317     0.005394
PD2659   PD        0.548088    0.613203    0.509693     0.005394
PD2660   PD        0.595389    0.588681    0.496419     0.005394
PD2661   PD        0.580920    0.615713    0.552917     0.005394
NI2662   NI        0.614980    0.579394    0.549590     0.004307
PD2663   PD        0.605163    0.607424    0.514390     0.005394
PD2664   PD        0.635461    0.573438    0.502659     0.005394
PD2665   PD        0.651713    0.610226    0.540241     0.005394
PD2666   PD        0.687508    0.572669    0.543965     0.005394
PD2667   PD        0.685631    0.606253    0.510500     0.005394
PD2668   PD        0.720802    0.576332    0.510511     0.005394
PD2669   PD        0.718613    0.609154    0.543772     0.005394
PD2670   PD        0.752816    0.574925    0.544412     0.005394
NI2671   NI        0.762839    0.632238    0.515171     0.004307
NI2672   NI        0.798661    0.579499    0.480474     0.004307
NI2673   NI        0.786645    0.617223    0.565684     0.004307
NI2674   NI        0.840433    0.562397    0.544953     0.004307
NI2675   NI        0.823743    0.600570    0.519984     0.004307
NI2676   NI        0.076970    0.656922    0.510984     0.004307
NI2677   NI        0.140716    0.640980    0.542418     0.004307
NI2678   NI        0.136379    0.681300    0.505031     0.004307
NI2679   NI        0.146915    0.657481    0.523227     0.004307
NI2680   NI        0.164756    0.676681    0.551734     0.004307
NI2681   NI        0.207950    0.645647    0.536822     0.004307
NI2682   NI        0.181490    0.685630    0.533262     0.004307
PD2683   PD        0.234278    0.643920    0.518671     0.005394
NI2684   NI        0.215626    0.691804    0.568828     0.004307
NI2685   NI        0.270641    0.658329    0.555064     0.004307
NI2686   NI        0.277079    0.679276    0.510400     0.004307
PD2687   PD        0.302860    0.637879    0.514609     0.005394
PD2688   PD        0.306626    0.682085    0.531451     0.005394
PD2689   PD        0.340771    0.651922    0.550533     0.005394
PD2690   PD        0.348127    0.672611    0.508543     0.005394
PD2691   PD        0.375871    0.649424    0.508001     0.005394
PD2692   PD        0.376506    0.683699    0.540277     0.005394
PD2693   PD        0.407485    0.652896    0.545216     0.005394
PD2694   PD        0.408236    0.663839    0.503196     0.005394
PD2695   PD        0.444967    0.649757    0.509119     0.005394
PD2696   PD        0.435108    0.664034    0.542973     0.005394
PD2697   PD        0.479699    0.648671    0.544866     0.005394
PD2698   PD        0.480720    0.684099    0.509341     0.005394
PD2699   PD        0.533614    0.639942    0.507671     0.005394
NI2700   NI        0.526434    0.708881    0.546179     0.004307
PD2701   PD        0.546070    0.651296    0.552606     0.005394
PD2702   PD        0.548499    0.685731    0.511603     0.005394
PD2703   PD        0.579645    0.649743    0.518750     0.005394
PD2704   PD        0.584882    0.679890    0.554190     0.005394
PD2705   PD        0.616944    0.647477    0.538899     0.005394
NI2706   NI        0.629725    0.681371    0.507255     0.004307
PD2707   PD        0.655534    0.643397    0.511188     0.005394
PD2708   PD        0.651176    0.681064    0.539930     0.005394
PD2709   PD        0.684520    0.643912    0.541794     0.005394
PD2710   PD        0.685775    0.676938    0.506469     0.005394
PD2711   PD        0.720316    0.644352    0.509539     0.005394
NI2712   NI        0.723226    0.669662    0.553127     0.004307
NI2713   NI        0.749750    0.655449    0.545497     0.004307
NI2714   NI        0.750520    0.676832    0.501933     0.004307
NI2715   NI        0.790553    0.642537    0.524275     0.004307
NI2716   NI        0.139971    0.711285    0.496572     0.004307
NI2717   NI        0.215343    0.714383    0.535276     0.004307
NI2718   NI        0.220752    0.759473    0.517105     0.004307
NI2719   NI        0.219352    0.712540    0.520753     0.004307
NI2720   NI        0.246869    0.766324    0.554708     0.004307
NI2721   NI        0.260478    0.704689    0.544407     0.004307
NI2722   NI        0.287137    0.747142    0.496399     0.004307
PD2723   PD        0.314094    0.706828    0.505335     0.005394
NI2724   NI        0.288597    0.745205    0.541543     0.004307
PD2725   PD        0.345726    0.704682    0.541433     0.005394
PD2726   PD        0.344660    0.752688    0.510144     0.005394
NI2727   NI        0.358885    0.704837    0.512863     0.004307
NI2728   NI        0.377980    0.751685    0.542481     0.004307
PD2729   PD        0.422113    0.699428    0.543580     0.005394
PD2730   PD        0.412085    0.752611    0.508080     0.005394
PD2731   PD        0.446684    0.717957    0.508458     0.005394
PD2732   PD        0.444452    0.752832    0.543920     0.005394
NI2733   NI        0.480553    0.701902    0.548811     0.004307
PD2734   PD        0.479761    0.753530    0.509266     0.005394
PD2735   PD        0.512703    0.719175    0.509234     0.005394
PD2736   PD        0.512843    0.751076    0.543726     0.005394
NI2737   NI        0.545345    0.718458    0.547208     0.004307
PD2738   PD        0.549412    0.752077    0.509935     0.005394
NI2739   NI        0.593210    0.693499    0.507910     0.004307
PD2740   PD        0.583228    0.749875    0.543401     0.005394
NI2741   NI        0.619996    0.717121    0.542255     0.004307
NI2742   NI        0.612040    0.742018    0.504146     0.004307
PD2743   PD        0.651150    0.716600    0.506532     0.005394
NI2744   NI        0.649868    0.764653    0.553850     0.004307
NI2745   NI        0.686883    0.712749    0.539980     0.004307
NI2746   NI        0.694608    0.735783    0.512327     0.004307
NI2747   NI        0.735808    0.715836    0.509478     0.004307
NI2748   NI        0.217243    0.812555    0.496758     0.004307
NI2749   NI        0.266223    0.773628    0.529127     0.004307
NI2750   NI        0.275241    0.825591    0.522333     0.004307
NI2751   NI        0.334766    0.772353    0.501558     0.004307
NI2752   NI        0.310085    0.824684    0.540711     0.004307
NI2753   NI        0.342946    0.787286    0.542390     0.004307
NI2754   NI        0.318011    0.816043    0.510515     0.004307
PD2755   PD        0.379007    0.787757    0.509482     0.005394
NI2756   NI        0.377879    0.820147    0.545678     0.004307
PD2757   PD        0.410296    0.785976    0.542111     0.005394
NI2758   NI        0.374556    0.835555    0.511696     0.004307
PD2759   PD        0.445941    0.787523    0.509250     0.005394
NI2760   NI        0.425400    0.807739    0.550099     0.004307
PD2761   PD        0.480437    0.785301    0.545402     0.005394
PD2762   PD        0.480303    0.821993    0.511323     0.005394
PD2763   PD        0.513349    0.786960    0.512079     0.005394
NI2764   NI        0.515473    0.819642    0.545814     0.004307
PD2765   PD        0.548362    0.784780    0.545723     0.005394
NI2766   NI        0.548740    0.818607    0.511738     0.004307
NI2767   NI        0.582392    0.785785    0.511107     0.004307
NI2768   NI        0.585206    0.816701    0.545134     0.004307
NI2769   NI        0.632983    0.807137    0.542003     0.004307
NI2770   NI        0.594522    0.829994    0.502663     0.004307
NI2771   NI        0.672684    0.801705    0.508319     0.004307
NI2772   NI        0.413785    0.863173    0.509019     0.004307
PD2773   PD        0.338280    0.056330    0.576379     0.005394
PD2774   PD        0.370984    0.057364    0.611111     0.005394
PD2775   PD        0.405339    0.056103    0.577334     0.005394
NI2776   NI        0.440100    0.033039    0.600468     0.004307
NI2777   NI        0.475365    0.057160    0.575785     0.004307
NI2778   NI        0.515813    0.043969    0.595300     0.004307
NI2779   NI        0.543997    0.061385    0.575743     0.004307
PD2780   PD        0.200184    0.124709    0.575858     0.005394
PD2781   PD        0.232081    0.124596    0.609683     0.005394
PD2782   PD        0.268700    0.090547    0.609357     0.005394
PD2783   PD        0.267831    0.123451    0.576112     0.005394
PD2784   PD        0.302905    0.089882    0.575024     0.005394
PD2785   PD        0.302646    0.123142    0.609934     0.005394
PD2786   PD        0.338004    0.092234    0.610503     0.005394
NI2787   NI        0.337752    0.100906    0.588153     0.004307
PD2788   PD        0.372117    0.090402    0.575683     0.005394
PD2789   PD        0.371828    0.125435    0.610575     0.005394
NI2790   NI        0.428437    0.077848    0.619912     0.004307
PD2791   PD        0.404670    0.124100    0.574371     0.005394
PD2792   PD        0.440836    0.090175    0.574516     0.005394
NI2793   NI        0.444687    0.122825    0.628655     0.004307
PD2794   PD        0.473826    0.090390    0.609527     0.005394
NI2795   NI        0.466552    0.112326    0.587785     0.004307
PD2796   PD        0.507710    0.091297    0.574153     0.005394
NI2797   NI        0.508986    0.123885    0.607856     0.004307
NI2798   NI        0.544201    0.094853    0.609752     0.004307
NI2799   NI        0.547137    0.117586    0.567126     0.004307
NI2800   NI        0.575735    0.095195    0.575516     0.004307
NI2801   NI        0.598089    0.110604    0.620461     0.004307
NI2802   NI        0.620126    0.067565    0.610738     0.004307
PD2803   PD        0.610246    0.129573    0.575590     0.005394
NI2804   NI        0.678270    0.129589    0.642852     0.004307
NI2805   NI        0.679897    0.128202    0.575759     0.004307
PD2806   PD        0.132414    0.192160    0.574106     0.005394
PD2807   PD        0.163891    0.157116    0.574335     0.005394
NI2808   NI        0.135604    0.179477    0.599424     0.004307
PD2809   PD        0.198895    0.158066    0.610156     0.005394
PD2810   PD        0.197673    0.191086    0.575403     0.005394
PD2811   PD        0.234728    0.156714    0.573486     0.005394
NI2812   NI        0.241204    0.171399    0.608525     0.004307
NI2813   NI        0.281682    0.166160    0.634500     0.004307
PD2814   PD        0.267135    0.192233    0.575056     0.005394
NI2815   NI        0.313197    0.167951    0.596374     0.004307
PD2816   PD        0.300592    0.192103    0.609460     0.005394
PD2817   PD        0.335768    0.158611    0.609637     0.005394
PD2818   PD        0.336988    0.193312    0.576390     0.005394
PD2819   PD        0.370370    0.159620    0.574782     0.005394
PD2820   PD        0.370442    0.191803    0.609152     0.005394
PD2821   PD        0.403565    0.160166    0.608839     0.005394
PD2822   PD        0.405632    0.193870    0.573976     0.005394
PD2823   PD        0.440276    0.160515    0.575809     0.005394
PD2824   PD        0.439841    0.194130    0.607989     0.005394
PD2825   PD        0.472619    0.156549    0.610323     0.005394
PD2826   PD        0.474621    0.196585    0.573499     0.005394
PD2827   PD        0.505033    0.161364    0.572403     0.005394
NI2828   NI        0.517151    0.206724    0.610876     0.004307
NI2829   NI        0.535302    0.158637    0.636867     0.004307
NI2830   NI        0.526227    0.198664    0.583075     0.004307
NI2831   NI        0.586329    0.167198    0.583116     0.004307
NI2832   NI        0.571819    0.183152    0.616009     0.004307
NI2833   NI        0.611473    0.154466    0.616172     0.004307
NI2834   NI        0.645753    0.157718    0.570033     0.004307
NI2835   NI        0.654084    0.164233    0.573861     0.004307
NI2836   NI        0.645672    0.199074    0.607372     0.004307
NI2837   NI        0.677688    0.160058    0.606049     0.004307
NI2838   NI        0.682642    0.196324    0.576820     0.004307
NI2839   NI        0.735827    0.131003    0.581881     0.004307
NI2840   NI        0.731064    0.188620    0.646153     0.004307
NI2841   NI        0.751466    0.197004    0.573062     0.004307
NI2842   NI        0.095028    0.290581    0.640588     0.004307
NI2843   NI        0.123362    0.210823    0.609553     0.004307
PD2844   PD        0.131060    0.259764    0.573117     0.005394
PD2845   PD        0.166237    0.227989    0.574104     0.005394
NI2846   NI        0.166162    0.246164    0.631768     0.004307
PD2847   PD        0.199968    0.226098    0.608566     0.005394
PD2848   PD        0.199650    0.260549    0.575510     0.005394
NI2849   NI        0.221104    0.215257    0.599102     0.004307
PD2850   PD        0.233429    0.261197    0.608574     0.005394
NI2851   NI        0.244347    0.219713    0.612547     0.004307
PD2852   PD        0.279296    0.249811    0.596469     0.005394
PD2853   PD        0.300450    0.226274    0.574792     0.005394
PD2854   PD        0.302399    0.260002    0.609522     0.005394
PD2855   PD        0.335407    0.225983    0.609930     0.005394
PD2856   PD        0.310348    0.258643    0.604692     0.005394
PD2857   PD        0.370636    0.226326    0.574366     0.005394
PD2858   PD        0.367807    0.259720    0.607766     0.005394
PD2859   PD        0.404714    0.227198    0.609226     0.005394
PD2860   PD        0.403410    0.261210    0.573389     0.005394
NI2861   NI        0.460950    0.221739    0.590998     0.004307
PD2862   PD        0.439131    0.262080    0.606958     0.005394
PD2863   PD        0.472787    0.233048    0.607106     0.005394
PD2864   PD        0.479784    0.256048    0.562381     0.005394
PD2865   PD        0.504185    0.234596    0.573676     0.005394
PD2866   PD        0.498621    0.275589    0.603295     0.005394
PD2867   PD        0.535825    0.240826    0.603811     0.005394
PD2868   PD        0.558876    0.262267    0.568002     0.005394
PD2869   PD        0.579770    0.223851    0.589968     0.005394
PD2870   PD        0.582866    0.268615    0.606991     0.005394
NI2871   NI        0.617831    0.241150    0.624647     0.004307
PD2872   PD        0.621110    0.265423    0.566218     0.005394
NI2873   NI        0.646530    0.224009    0.589227     0.004307
NI2874   NI        0.652290    0.259510    0.594917     0.004307
NI2875   NI        0.699304    0.217092    0.624088     0.004307
NI2876   NI        0.700303    0.263036    0.586405     0.004307
NI2877   NI        0.719075    0.219283    0.559705     0.004307
NI2878   NI        0.730342    0.276793    0.620386     0.004307
NI2879   NI        0.751154    0.234249    0.618776     0.004307
NI2880   NI        0.766347    0.264625    0.587025     0.004307
NI2881   NI        0.787902    0.261949    0.609418     0.004307
NI2882   NI        0.063483    0.330436    0.573716     0.004307
PD2883   PD        0.097282    0.295039    0.573993     0.005394
PD2884   PD        0.096087    0.328910    0.608577     0.005394
PD2885   PD        0.131886    0.294803    0.609388     0.005394
PD2886   PD        0.132854    0.330711    0.575255     0.005394
PD2887   PD        0.164829    0.295088    0.574653     0.005394
PD2888   PD        0.165499    0.328461    0.612232     0.005394
PD2889   PD        0.198172    0.294371    0.612052     0.005394
PD2890   PD        0.199376    0.327243    0.576663     0.005394
PD2891   PD        0.233397    0.294887    0.575479     0.005394
PD2892   PD        0.232089    0.329783    0.609835     0.005394
PD2893   PD        0.267507    0.295480    0.610022     0.005394
PD2894   PD        0.265793    0.331447    0.575932     0.005394
PD2895   PD        0.302971    0.295267    0.573981     0.005394
PD2896   PD        0.301584    0.330363    0.607148     0.005394
PD2897   PD        0.337328    0.295945    0.608035     0.005394
PD2898   PD        0.335398    0.330410    0.572470     0.005394
PD2899   PD        0.385725    0.295194    0.597098     0.005394
PD2900   PD        0.369823    0.330086    0.610823     0.005394
PD2901   PD        0.404066    0.297891    0.604860     0.005394
PD2902   PD        0.422687    0.315468    0.576386     0.005394
PD2903   PD        0.435501    0.293031    0.588463     0.005394
PD2904   PD        0.437362    0.331048    0.610719     0.005394
PD2905   PD        0.473046    0.310162    0.624402     0.005394
PD2906   PD        0.472620    0.325894    0.579934     0.005394
PD2907   PD        0.516183    0.280243    0.583611     0.005394
PD2908   PD        0.513949    0.333382    0.625080     0.005394
PD2909   PD        0.549039    0.299902    0.604973     0.005394
PD2910   PD        0.538710    0.322986    0.574710     0.005394
PD2911   PD        0.583437    0.303808    0.573579     0.005394
PD2912   PD        0.589232    0.318952    0.624133     0.005394
PD2913   PD        0.628090    0.295200    0.612794     0.005394
PD2914   PD        0.620637    0.334546    0.571512     0.005394
PD2915   PD        0.653746    0.299649    0.573449     0.005394
PD2916   PD        0.654486    0.332006    0.608571     0.005394
NI2917   NI        0.686698    0.299471    0.609930     0.004307
PD2918   PD        0.688082    0.334388    0.574572     0.005394
PD2919   PD        0.720755    0.299976    0.579987     0.005394
NI2920   NI        0.703955    0.332985    0.609760     0.004307
NI2921   NI        0.755906    0.297175    0.611856     0.004307
NI2922   NI        0.757369    0.333119    0.578449     0.004307
NI2923   NI        0.790832    0.298664    0.579845     0.004307
NI2924   NI        0.789207    0.331501    0.611945     0.004307
NI2925   NI        0.825445    0.330959    0.579003     0.004307
NI2926   NI        0.083485    0.371511    0.620145     0.004307
NI2927   NI        0.050643    0.408228    0.551623     0.004307
PD2928   PD        0.098838    0.365868    0.574359     0.005394
NI2929   NI        0.120867    0.408908    0.618219     0.004307
PD2930   PD        0.129643    0.362413    0.610506     0.005394
PD2931   PD        0.130670    0.399251    0.577999     0.005394
NI2932   NI        0.167491    0.365346    0.580860     0.004307
PD2933   PD        0.163241    0.397460    0.614052     0.005394
PD2934   PD        0.197147    0.363077    0.609913     0.005394
PD2935   PD        0.204036    0.398965    0.598306     0.005394
PD2936   PD        0.230890    0.361605    0.575288     0.005394
NI2937   NI        0.229287    0.392118    0.630753     0.004307
PD2938   PD        0.265606    0.380533    0.601936     0.005394
PD2939   PD        0.267300    0.398437    0.577048     0.005394
PD2940   PD        0.302729    0.364661    0.576125     0.005394
PD2941   PD        0.313750    0.396316    0.593567     0.005394
PD2942   PD        0.329418    0.364101    0.592764     0.005394
PD2943   PD        0.337900    0.412358    0.568500     0.005394
PD2944   PD        0.369063    0.365658    0.570938     0.005394
PD2945   PD        0.368026    0.389768    0.615867     0.005394
PD2946   PD        0.422031    0.351029    0.596455     0.005394
PD2947   PD        0.408605    0.378613    0.592338     0.005394
PD2948   PD        0.438810    0.358714    0.564009     0.005394
PD2949   PD        0.446353    0.394565    0.617615     0.005394
PD2950   PD        0.460759    0.372622    0.604214     0.005394
PD2951   PD        0.493937    0.407229    0.594333     0.005394
PD2952   PD        0.518112    0.372619    0.570274     0.005394
PD2953   PD        0.525550    0.402171    0.631091     0.005394
PD2954   PD        0.540208    0.341838    0.618786     0.005394
PD2955   PD        0.535600    0.406873    0.586084     0.005394
PD2956   PD        0.576349    0.352610    0.568685     0.005394
PD2957   PD        0.583134    0.395696    0.618951     0.005394
PD2958   PD        0.619605    0.367210    0.606440     0.005394
PD2959   PD        0.608366    0.392226    0.579146     0.005394
PD2960   PD        0.654696    0.368748    0.575078     0.005394
PD2961   PD        0.654240    0.399741    0.611790     0.005394
PD2962   PD        0.687666    0.366262    0.608380     0.005394
PD2963   PD        0.688313    0.403066    0.576602     0.005394
PD2964   PD        0.723304    0.367208    0.577542     0.005394
PD2965   PD        0.721244    0.401544    0.610335     0.005394
PD2966   PD        0.756059    0.366400    0.612207     0.005394
NI2967   NI        0.763162    0.386540    0.583276     0.004307
NI2968   NI        0.805857    0.366599    0.603232     0.004307
NI2969   NI        0.804481    0.396628    0.590669     0.004307
NI2970   NI        0.857659    0.403010    0.614801     0.004307
NI2971   NI        0.825023    0.403643    0.581666     0.004307
NI2972   NI        0.064959    0.436076    0.607508     0.004307
NI2973   NI        0.042303    0.477715    0.597410     0.004307
NI2974   NI        0.100704    0.435774    0.576955     0.004307
NI2975   NI        0.095799    0.463661    0.615813     0.004307
PD2976   PD        0.128411    0.431258    0.615134     0.005394
NI2977   NI        0.130064    0.467498    0.584236     0.004307
PD2978   PD        0.163544    0.434056    0.579961     0.005394
PD2979   PD        0.163412    0.467634    0.617516     0.005394
NI2980   NI        0.207547    0.434157    0.630661     0.004307
PD2981   PD        0.193810    0.471159    0.583951     0.005394
PD2982   PD        0.227645    0.439238    0.585756     0.005394
PD2983   PD        0.227164    0.476023    0.616893     0.005394
PD2984   PD        0.267050    0.449722    0.615031     0.005394
PD2985   PD        0.272184    0.465876    0.569143     0.005394
PD2986   PD        0.312612    0.441167    0.577860     0.005394
NI2987   NI        0.306503    0.470443    0.601955     0.004307
PD2988   PD        0.327554    0.433296    0.621561     0.005394
PD2989   PD        0.345477    0.490719    0.583447     0.005394
PD2990   PD        0.365793    0.434540    0.568331     0.005394
PD2991   PD        0.360839    0.465925    0.609370     0.005394
PD2992   PD        0.396759    0.438734    0.623320     0.005394
PD2993   PD        0.410658    0.479533    0.578385     0.005394
PD2994   PD        0.431083    0.433660    0.589816     0.005394
PD2995   PD        0.446953    0.465455    0.622362     0.005394
PD2996   PD        0.463321    0.440413    0.606923     0.005394
PD2997   PD        0.477125    0.478013    0.579679     0.005394
PD2998   PD        0.514840    0.445700    0.581934     0.005394
PD2999   PD        0.501845    0.469699    0.619993     0.005394
PD3000   PD        0.534571    0.439401    0.600738     0.005394
PD3001   PD        0.550793    0.467185    0.582707     0.005394
PD3002   PD        0.578358    0.428479    0.585001     0.005394
PD3003   PD        0.584590    0.464379    0.617183     0.005394
PD3004   PD        0.617089    0.431379    0.615764     0.005394
PD3005   PD        0.621635    0.472003    0.585323     0.005394
PD3006   PD        0.662336    0.444028    0.593647     0.005394
PD3007   PD        0.652253    0.481903    0.623052     0.005394
NI3008   NI        0.695003    0.423574    0.624428     0.004307
NI3009   NI        0.690067    0.486184    0.592184     0.004307
PD3010   PD        0.720430    0.437249    0.578767     0.005394
PD3011   PD        0.716599    0.473639    0.610146     0.005394
NI3012   NI        0.756823    0.466421    0.631447     0.004307
PD3013   PD        0.753414    0.472183    0.580578     0.005394
NI3014   NI        0.781105    0.448034    0.547160     0.004307
NI3015   NI        0.802213    0.448280    0.627308     0.004307
NI3016   NI        0.822428    0.436474    0.614263     0.004307
NI3017   NI        0.822477    0.471733    0.581740     0.004307
NI3018   NI        0.052478    0.533179    0.613798     0.004307
NI3019   NI        0.070375    0.539050    0.575728     0.004307
NI3020   NI        0.071633    0.514955    0.576597     0.004307
NI3021   NI        0.102186    0.537961    0.607894     0.004307
NI3022   NI        0.123270    0.494398    0.610270     0.004307
NI3023   NI        0.116225    0.529447    0.576202     0.004307
PD3024   PD        0.158252    0.504733    0.580159     0.005394
NI3025   NI        0.174432    0.541702    0.608073     0.004307
NI3026   NI        0.195866    0.514393    0.609357     0.004307
PD3027   PD        0.207444    0.538627    0.578032     0.005394
PD3028   PD        0.228071    0.506556    0.579522     0.005394
NI3029   NI        0.244759    0.558520    0.614314     0.004307
NI3030   NI        0.253023    0.519205    0.619763     0.004307
PD3031   PD        0.263220    0.537161    0.576646     0.005394
PD3032   PD        0.305600    0.515805    0.581048     0.005394
PD3033   PD        0.291122    0.551688    0.607977     0.005394
PD3034   PD        0.318759    0.515887    0.607372     0.005394
PD3035   PD        0.343722    0.547520    0.580287     0.005394
PD3036   PD        0.387728    0.509959    0.583283     0.005394
PD3037   PD        0.376383    0.546834    0.613450     0.005394
PD3038   PD        0.399648    0.505505    0.623822     0.005394
PD3039   PD        0.426202    0.530293    0.586535     0.005394
PD3040   PD        0.455578    0.494238    0.585838     0.005394
PD3041   PD        0.422221    0.558325    0.613859     0.005394
PD3042   PD        0.462776    0.509729    0.609259     0.005394
PD3043   PD        0.476810    0.547961    0.581212     0.005394
PD3044   PD        0.536067    0.474969    0.586692     0.005394
PD3045   PD        0.516577    0.533587    0.621427     0.005394
PD3046   PD        0.549209    0.500838    0.607361     0.005394
PD3047   PD        0.547714    0.547313    0.583862     0.005394
PD3048   PD        0.571085    0.529220    0.577434     0.005394
PD3049   PD        0.581799    0.547220    0.616974     0.005394
PD3050   PD        0.629643    0.479813    0.616208     0.005394
PD3051   PD        0.615931    0.549776    0.582989     0.005394
PD3052   PD        0.651046    0.510274    0.582838     0.005394
NI3053   NI        0.649311    0.535604    0.620587     0.004307
PD3054   PD        0.678182    0.507834    0.593413     0.005394
PD3055   PD        0.677684    0.550036    0.569924     0.005394
NI3056   NI        0.731551    0.486708    0.570581     0.004307
NI3057   NI        0.718259    0.539866    0.629203     0.004307
PD3058   PD        0.751463    0.506252    0.613073     0.005394
NI3059   NI        0.774965    0.538065    0.592566     0.004307
NI3060   NI        0.775205    0.497369    0.576259     0.004307
NI3061   NI        0.780845    0.540441    0.601044     0.004307
NI3062   NI        0.840882    0.535354    0.626271     0.004307
NI3063   NI        0.820853    0.541411    0.584410     0.004307
NI3064   NI        0.087232    0.567002    0.590249     0.004307
NI3065   NI        0.087908    0.603136    0.623543     0.004307
NI3066   NI        0.125272    0.597761    0.595097     0.004307
NI3067   NI        0.119714    0.605237    0.563093     0.004307
NI3068   NI        0.163539    0.590129    0.576847     0.004307
NI3069   NI        0.153233    0.628196    0.618148     0.004307
NI3070   NI        0.201707    0.580137    0.625971     0.004307
NI3071   NI        0.187103    0.615429    0.577002     0.004307
PD3072   PD        0.244577    0.568884    0.572653     0.005394
NI3073   NI        0.240814    0.600929    0.608342     0.004307
NI3074   NI        0.249409    0.578365    0.618821     0.004307
PD3075   PD        0.269115    0.609528    0.586442     0.005394
PD3076   PD        0.295301    0.572672    0.590625     0.005394
PD3077   PD        0.307647    0.612912    0.617102     0.005394
PD3078   PD        0.331582    0.570184    0.622688     0.005394
PD3079   PD        0.336153    0.596250    0.580963     0.005394
PD3080   PD        0.377386    0.592126    0.601476     0.005394
PD3081   PD        0.380518    0.608250    0.590503     0.005394
PD3082   PD        0.409391    0.581386    0.614299     0.005394
PD3083   PD        0.408892    0.614909    0.578586     0.005394
PD3084   PD        0.441797    0.581972    0.578327     0.005394
PD3085   PD        0.443677    0.599168    0.608387     0.005394
PD3086   PD        0.455799    0.592047    0.618926     0.005394
PD3087   PD        0.476734    0.616054    0.579763     0.005394
PD3088   PD        0.511495    0.582276    0.582584     0.005394
PD3089   PD        0.511848    0.614174    0.614061     0.005394
PD3090   PD        0.546912    0.581027    0.617969     0.005394
PD3091   PD        0.577258    0.609475    0.601023     0.005394
PD3092   PD        0.580416    0.582944    0.581145     0.005394
PD3093   PD        0.568177    0.605000    0.609814     0.005394
PD3094   PD        0.613313    0.586836    0.620500     0.005394
PD3095   PD        0.613809    0.599122    0.577137     0.005394
PD3096   PD        0.651189    0.572485    0.593675     0.005394
NI3097   NI        0.670541    0.610032    0.617612     0.004307
PD3098   PD        0.681623    0.574179    0.610751     0.005394
PD3099   PD        0.684949    0.609821    0.576505     0.005394
PD3100   PD        0.719127    0.575482    0.579021     0.005394
NI3101   NI        0.741430    0.590168    0.622523     0.004307
NI3102   NI        0.750235    0.573622    0.613223     0.004307
NI3103   NI        0.751177    0.610114    0.579496     0.004307
NI3104   NI        0.800555    0.592476    0.562177     0.004307
NI3105   NI        0.784676    0.608365    0.612446     0.004307
NI3106   NI        0.136753    0.650777    0.627205     0.004307
NI3107   NI        0.131633    0.679212    0.588611     0.004307
NI3108   NI        0.153599    0.635479    0.581740     0.004307
NI3109   NI        0.172597    0.673535    0.611032     0.004307
NI3110   NI        0.207056    0.648533    0.604998     0.004307
NI3111   NI        0.209673    0.681013    0.570495     0.004307
NI3112   NI        0.225317    0.642596    0.587900     0.004307
NI3113   NI        0.238015    0.685750    0.612279     0.004307
PD3114   PD        0.262926    0.645479    0.619115     0.005394
NI3115   NI        0.278660    0.683468    0.593463     0.004307
NI3116   NI        0.309399    0.654071    0.582249     0.004307
NI3117   NI        0.301719    0.676924    0.612950     0.004307
NI3118   NI        0.346490    0.660920    0.615647     0.004307
NI3119   NI        0.343543    0.683792    0.591439     0.004307
PD3120   PD        0.373480    0.652056    0.577155     0.005394
PD3121   PD        0.381834    0.685024    0.615873     0.005394
PD3122   PD        0.407735    0.650727    0.611126     0.005394
PD3123   PD        0.409036    0.684954    0.577266     0.005394
PD3124   PD        0.444644    0.649812    0.577051     0.005394
PD3125   PD        0.442300    0.684129    0.614539     0.005394
PD3126   PD        0.475677    0.649618    0.613868     0.005394
PD3127   PD        0.476957    0.684223    0.577758     0.005394
PD3128   PD        0.509156    0.649627    0.581447     0.005394
NI3129   NI        0.511187    0.682001    0.623742     0.004307
PD3130   PD        0.544699    0.644682    0.599068     0.005394
PD3131   PD        0.547016    0.682124    0.579743     0.005394
PD3132   PD        0.584084    0.646551    0.588429     0.005394
NI3133   NI        0.593405    0.686565    0.615430     0.004307
NI3134   NI        0.614709    0.646749    0.623159     0.004307
NI3135   NI        0.595147    0.686297    0.568220     0.004307
PD3136   PD        0.649989    0.643016    0.574805     0.005394
NI3137   NI        0.647942    0.679196    0.608756     0.004307
PD3138   PD        0.681499    0.644754    0.610057     0.005394
PD3139   PD        0.682708    0.678313    0.572563     0.005394
NI3140   NI        0.717853    0.658591    0.597864     0.004307
NI3141   NI        0.756911    0.684473    0.611233     0.004307
NI3142   NI        0.749483    0.642432    0.615016     0.004307
NI3143   NI        0.758294    0.650238    0.580758     0.004307
NI3144   NI        0.179731    0.720103    0.564501     0.004307
NI3145   NI        0.203567    0.718956    0.607058     0.004307
NI3146   NI        0.205376    0.748752    0.568986     0.004307
NI3147   NI        0.226324    0.724185    0.570239     0.004307
NI3148   NI        0.243121    0.740517    0.612056     0.004307
NI3149   NI        0.276287    0.706846    0.606957     0.004307
NI3150   NI        0.271134    0.754558    0.572847     0.004307
NI3151   NI        0.286305    0.716915    0.591194     0.004307
NI3152   NI        0.298035    0.774575    0.620415     0.004307
NI3153   NI        0.346976    0.708618    0.607760     0.004307
NI3154   NI        0.317518    0.741975    0.589769     0.004307
NI3155   NI        0.350105    0.731800    0.572379     0.004307
NI3156   NI        0.374558    0.751932    0.609848     0.004307
PD3157   PD        0.411489    0.716039    0.612510     0.005394
PD3158   PD        0.410806    0.753323    0.578404     0.005394
PD3159   PD        0.445551    0.719169    0.577446     0.005394
NI3160   NI        0.419820    0.757264    0.635523     0.004307
PD3161   PD        0.477827    0.717533    0.613396     0.005394
PD3162   PD        0.478748    0.751343    0.578460     0.005394
PD3163   PD        0.513991    0.717397    0.577002     0.005394
PD3164   PD        0.515054    0.749007    0.612652     0.005394
NI3165   NI        0.551488    0.704269    0.632849     0.004307
NI3166   NI        0.549760    0.749478    0.575857     0.004307
NI3167   NI        0.595313    0.728546    0.585928     0.004307
NI3168   NI        0.564480    0.748195    0.616656     0.004307
NI3169   NI        0.616533    0.713605    0.610182     0.004307
NI3170   NI        0.617450    0.749429    0.576835     0.004307
NI3171   NI        0.653673    0.714774    0.574037     0.004307
NI3172   NI        0.650078    0.745568    0.612130     0.004307
NI3173   NI        0.677615    0.708050    0.609033     0.004307
NI3174   NI        0.687884    0.744708    0.575103     0.004307
NI3175   NI        0.718117    0.724163    0.589564     0.004307
NI3176   NI        0.252706    0.788253    0.618035     0.004307
NI3177   NI        0.293615    0.802790    0.601190     0.004307
NI3178   NI        0.338784    0.783186    0.610057     0.004307
NI3179   NI        0.342363    0.820798    0.576472     0.004307
NI3180   NI        0.375979    0.812527    0.602378     0.004307
NI3181   NI        0.375292    0.815773    0.612372     0.004307
NI3182   NI        0.412005    0.786642    0.613680     0.004307
NI3183   NI        0.409648    0.819158    0.578445     0.004307
NI3184   NI        0.444173    0.787053    0.578560     0.004307
NI3185   NI        0.453289    0.789311    0.627386     0.004307
NI3186   NI        0.461901    0.782653    0.633271     0.004307
NI3187   NI        0.463926    0.829778    0.563617     0.004307
PD3188   PD        0.514744    0.783857    0.579267     0.005394
NI3189   NI        0.514463    0.819591    0.612136     0.004307
NI3190   NI        0.584871    0.792164    0.615975     0.004307
NI3191   NI        0.548537    0.818426    0.579111     0.004307
NI3192   NI        0.594426    0.791339    0.564924     0.004307
NI3193   NI        0.616850    0.780882    0.612695     0.004307
NI3194   NI        0.268328    0.127889    0.644128     0.004307
NI3195   NI        0.301985    0.125218    0.678337     0.004307
PD3196   PD        0.337127    0.126703    0.644250     0.005394
NI3197   NI        0.371534    0.092807    0.646450     0.004307
PD3198   PD        0.371862    0.127526    0.678487     0.005394
NI3199   NI        0.432769    0.078992    0.668486     0.004307
PD3200   PD        0.406166    0.126409    0.644448     0.005394
NI3201   NI        0.437607    0.090735    0.642566     0.004307
NI3202   NI        0.441912    0.127013    0.677145     0.004307
NI3203   NI        0.487226    0.115604    0.666827     0.004307
NI3204   NI        0.461678    0.115372    0.631476     0.004307
NI3205   NI        0.522328    0.088288    0.652684     0.004307
NI3206   NI        0.522338    0.120583    0.689308     0.004307
NI3207   NI        0.552670    0.122692    0.653118     0.004307
NI3208   NI        0.589863    0.123600    0.703529     0.004307
NI3209   NI        0.608313    0.114571    0.641051     0.004307
PD3210   PD        0.198708    0.191666    0.643857     0.005394
PD3211   PD        0.232182    0.157339    0.645017     0.005394
PD3212   PD        0.267574    0.190194    0.712966     0.005394
PD3213   PD        0.267566    0.157457    0.677114     0.005394
PD3214   PD        0.267572    0.191402    0.643424     0.005394
PD3215   PD        0.301934    0.158590    0.643224     0.005394
NI3216   NI        0.312831    0.219802    0.697652     0.004307
NI3217   NI        0.332273    0.128856    0.687808     0.004307
NI3218   NI        0.337102    0.175761    0.671049     0.004307
PD3219   PD        0.372275    0.157166    0.641969     0.005394
PD3220   PD        0.372442    0.192000    0.678398     0.005394
NI3221   NI        0.417332    0.131398    0.713435     0.004307
PD3222   PD        0.405072    0.192597    0.643092     0.005394
PD3223   PD        0.437975    0.157443    0.641555     0.005394
NI3224   NI        0.436805    0.195470    0.691951     0.004307
NI3225   NI        0.476803    0.160914    0.674420     0.004307
NI3226   NI        0.444264    0.164964    0.641146     0.004307
PD3227   PD        0.509055    0.162804    0.640781     0.005394
NI3228   NI        0.522209    0.187907    0.691768     0.004307
NI3229   NI        0.557523    0.155219    0.688607     0.004307
NI3230   NI        0.561180    0.186720    0.663091     0.004307
NI3231   NI        0.589419    0.149152    0.666919     0.004307
NI3232   NI        0.588897    0.192260    0.688708     0.004307
NI3233   NI        0.622933    0.159934    0.698443     0.004307
NI3234   NI        0.611736    0.186530    0.655575     0.004307
NI3235   NI        0.646887    0.161736    0.642422     0.004307
NI3236   NI        0.651690    0.192398    0.677105     0.004307
NI3237   NI        0.684258    0.193947    0.641373     0.004307
NI3238   NI        0.129851    0.261074    0.641692     0.004307
PD3239   PD        0.166988    0.227460    0.644195     0.005394
PD3240   PD        0.164965    0.259601    0.679068     0.005394
PD3241   PD        0.199603    0.225645    0.678332     0.005394
PD3242   PD        0.200052    0.261064    0.642671     0.005394
NI3243   NI        0.226201    0.237377    0.663244     0.004307
PD3244   PD        0.232648    0.260657    0.678527     0.005394
PD3245   PD        0.269607    0.226221    0.679522     0.005394
NI3246   NI        0.272733    0.234531    0.673504     0.004307
PD3247   PD        0.301930    0.227786    0.644201     0.005394
PD3248   PD        0.302560    0.262839    0.676776     0.005394
PD3249   PD        0.337429    0.225490    0.677472     0.005394
PD3250   PD        0.335341    0.260978    0.644795     0.005394
PD3251   PD        0.370911    0.228090    0.641074     0.005394
PD3252   PD        0.369228    0.260392    0.677657     0.005394
PD3253   PD        0.405701    0.228380    0.675810     0.005394
PD3254   PD        0.403325    0.261974    0.643376     0.005394
PD3255   PD        0.437054    0.230475    0.642519     0.005394
NI3256   NI        0.444128    0.250164    0.693790     0.004307
NI3257   NI        0.464031    0.224260    0.695640     0.004307
NI3258   NI        0.490250    0.256963    0.675182     0.004307
NI3259   NI        0.524231    0.233058    0.652252     0.004307
NI3260   NI        0.522277    0.259071    0.706824     0.004307
NI3261   NI        0.550646    0.226070    0.687932     0.004307
NI3262   NI        0.547632    0.271163    0.666553     0.004307
NI3263   NI        0.585278    0.227183    0.656392     0.004307
NI3264   NI        0.585916    0.259800    0.693042     0.004307
PD3265   PD        0.617759    0.228344    0.674916     0.005394
PD3266   PD        0.611861    0.270484    0.650462     0.005394
NI3267   NI        0.657172    0.227128    0.648323     0.004307
NI3268   NI        0.650612    0.265886    0.676896     0.004307
NI3269   NI        0.659658    0.216997    0.694982     0.004307
NI3270   NI        0.687122    0.265625    0.647284     0.004307
NI3271   NI        0.715323    0.231456    0.635346     0.004307
NI3272   NI        0.712488    0.253446    0.692810     0.004307
NI3273   NI        0.753320    0.261834    0.643100     0.004307
NI3274   NI        0.111815    0.298297    0.669278     0.004307
PD3275   PD        0.130622    0.327701    0.646444     0.005394
PD3276   PD        0.165596    0.294724    0.644407     0.005394
NI3277   NI        0.156512    0.305877    0.672686     0.004307
PD3278   PD        0.199438    0.293315    0.677914     0.005394
PD3279   PD        0.198741    0.328511    0.643374     0.005394
PD3280   PD        0.233849    0.295502    0.646389     0.005394
PD3281   PD        0.234928    0.330467    0.677714     0.005394
PD3282   PD        0.267025    0.294044    0.679358     0.005394
NI3283   NI        0.260306    0.341884    0.681241     0.004307
PD3284   PD        0.301617    0.295366    0.645107     0.005394
PD3285   PD        0.313623    0.335829    0.680762     0.005394
PD3286   PD        0.338384    0.294546    0.674659     0.005394
PD3287   PD        0.335501    0.329304    0.641503     0.005394
PD3288   PD        0.370652    0.294238    0.644992     0.005394
PD3289   PD        0.377537    0.319633    0.662438     0.005394
PD3290   PD        0.403965    0.295651    0.678214     0.005394
PD3291   PD        0.408263    0.332658    0.658777     0.005394
PD3292   PD        0.438406    0.309462    0.652260     0.005394
NI3293   NI        0.432474    0.316311    0.696775     0.004307
PD3294   PD        0.471912    0.298371    0.678361     0.005394
PD3295   PD        0.483501    0.325095    0.649070     0.005394
PD3296   PD        0.505545    0.284546    0.646269     0.005394
PD3297   PD        0.537667    0.328684    0.666188     0.005394
PD3298   PD        0.551529    0.293445    0.690564     0.005394
PD3299   PD        0.551997    0.326941    0.655545     0.005394
PD3300   PD        0.585857    0.293381    0.634983     0.005394
PD3301   PD        0.585301    0.327482    0.690319     0.005394
NI3302   NI        0.618539    0.295085    0.691024     0.004307
NI3303   NI        0.615406    0.319824    0.652757     0.004307
NI3304   NI        0.655120    0.296988    0.641974     0.004307
NI3305   NI        0.650580    0.339476    0.678120     0.004307
NI3306   NI        0.687838    0.294691    0.680637     0.004307
PD3307   PD        0.683535    0.335889    0.645586     0.005394
NI3308   NI        0.720073    0.296213    0.645187     0.004307
NI3309   NI        0.712740    0.336011    0.681078     0.004307
NI3310   NI        0.757019    0.270851    0.699991     0.004307
NI3311   NI        0.753769    0.332832    0.646563     0.004307
NI3312   NI        0.082786    0.376760    0.661154     0.004307
NI3313   NI        0.103633    0.406058    0.691935     0.004307
NI3314   NI        0.123832    0.380845    0.664886     0.004307
NI3315   NI        0.113444    0.377842    0.656034     0.004307
PD3316   PD        0.164738    0.362832    0.645533     0.005394
NI3317   NI        0.151006    0.426721    0.694850     0.004307
NI3318   NI        0.206204    0.365300    0.679808     0.004307
PD3319   PD        0.199406    0.396974    0.644691     0.005394
PD3320   PD        0.234372    0.362935    0.643390     0.005394
PD3321   PD        0.236618    0.398847    0.674063     0.005394
NI3322   NI        0.269118    0.360719    0.693188     0.004307
NI3323   NI        0.258435    0.401041    0.667084     0.004307
PD3324   PD        0.305065    0.363471    0.641181     0.005394
PD3325   PD        0.300454    0.396182    0.688441     0.005394
PD3326   PD        0.334873    0.366827    0.675453     0.005394
PD3327   PD        0.341822    0.409134    0.650918     0.005394
PD3328   PD        0.359482    0.364926    0.656155     0.005394
PD3329   PD        0.364310    0.399033    0.687535     0.005394
PD3330   PD        0.417025    0.360046    0.690925     0.005394
PD3331   PD        0.412962    0.405722    0.653841     0.005394
PD3332   PD        0.436615    0.365164    0.640999     0.005394
PD3333   PD        0.450306    0.412639    0.681407     0.005394
PD3334   PD        0.473212    0.365691    0.690713     0.005394
PD3335   PD        0.483441    0.395705    0.651470     0.005394
PD3336   PD        0.520373    0.358169    0.647169     0.005394
PD3337   PD        0.504674    0.399887    0.699872     0.005394
PD3338   PD        0.545378    0.371759    0.669753     0.005394
PD3339   PD        0.549994    0.396047    0.654177     0.005394
PD3340   PD        0.587758    0.358533    0.651337     0.005394
PD3341   PD        0.586927    0.394472    0.683334     0.005394
NI3342   NI        0.604365    0.379951    0.690120     0.004307
PD3343   PD        0.619641    0.395270    0.647623     0.005394
NI3344   NI        0.653390    0.368194    0.670701     0.004307
NI3345   NI        0.652018    0.397018    0.677977     0.004307
NI3346   NI        0.688961    0.377345    0.689345     0.004307
NI3347   NI        0.687692    0.399768    0.645853     0.004307
NI3348   NI        0.721296    0.364683    0.643871     0.004307
NI3349   NI        0.721214    0.399252    0.680436     0.004307
NI3350   NI        0.755787    0.364769    0.678562     0.004307
NI3351   NI        0.737336    0.400792    0.637629     0.004307
NI3352   NI        0.789682    0.366106    0.647127     0.004307
NI3353   NI        0.794359    0.390791    0.701921     0.004307
NI3354   NI        0.098087    0.427695    0.650643     0.004307
NI3355   NI        0.098154    0.464910    0.684878     0.004307
NI3356   NI        0.136133    0.431803    0.685571     0.004307
NI3357   NI        0.131449    0.463779    0.650604     0.004307
PD3358   PD        0.164156    0.430289    0.647624     0.005394
NI3359   NI        0.157513    0.476149    0.685893     0.004307
PD3360   PD        0.210257    0.433131    0.677817     0.005394
NI3361   NI        0.188518    0.489412    0.653549     0.004307
NI3362   NI        0.227311    0.444935    0.668764     0.004307
NI3363   NI        0.221312    0.478504    0.682084     0.004307
NI3364   NI        0.246984    0.441470    0.693600     0.004307
PD3365   PD        0.257987    0.474608    0.649350     0.005394
PD3366   PD        0.306601    0.440945    0.639119     0.005394
PD3367   PD        0.304569    0.468284    0.676044     0.005394
PD3368   PD        0.343891    0.441671    0.684409     0.005394
PD3369   PD        0.342344    0.467026    0.651445     0.005394
PD3370   PD        0.388131    0.428173    0.655798     0.005394
PD3371   PD        0.369590    0.480979    0.688604     0.005394
PD3372   PD        0.420039    0.433193    0.692730     0.005394
PD3373   PD        0.404499    0.473877    0.657381     0.005394
PD3374   PD        0.474193    0.443195    0.654543     0.005394
PD3375   PD        0.417898    0.480963    0.688103     0.005394
PD3376   PD        0.489301    0.435260    0.698148     0.005394
PD3377   PD        0.470308    0.467364    0.647597     0.005394
PD3378   PD        0.501028    0.439635    0.637166     0.005394
PD3379   PD        0.510627    0.471329    0.675912     0.005394
PD3380   PD        0.544813    0.438364    0.678617     0.005394
PD3381   PD        0.552409    0.479248    0.649706     0.005394
PD3382   PD        0.583606    0.444464    0.651054     0.005394
NI3383   NI        0.590169    0.464078    0.686579     0.004307
PD3384   PD        0.618586    0.429016    0.682260     0.005394
PD3385   PD        0.618478    0.463460    0.650734     0.005394
PD3386   PD        0.653918    0.430289    0.647893     0.005394
NI3387   NI        0.663217    0.470244    0.667941     0.004307
NI3388   NI        0.704634    0.430725    0.706740     0.004307
PD3389   PD        0.685228    0.468168    0.646283     0.005394
NI3390   NI        0.734415    0.424117    0.668010     0.004307
NI3391   NI        0.721671    0.466263    0.682514     0.004307
NI3392   NI        0.767825    0.451457    0.690207     0.004307
NI3393   NI        0.754276    0.489987    0.656637     0.004307
NI3394   NI        0.787891    0.436757    0.647471     0.004307
NI3395   NI        0.785506    0.469358    0.681581     0.004307
NI3396   NI        0.096301    0.494105    0.658537     0.004307
NI3397   NI        0.132449    0.498977    0.678339     0.004307
NI3398   NI        0.129385    0.539922    0.629265     0.004307
NI3399   NI        0.153393    0.504557    0.647320     0.004307
NI3400   NI        0.165019    0.532972    0.684488     0.004307
NI3401   NI        0.190865    0.504792    0.704402     0.004307
NI3402   NI        0.198219    0.535422    0.647517     0.004307
PD3403   PD        0.237559    0.508922    0.648672     0.005394
NI3404   NI        0.236017    0.549409    0.674288     0.004307
NI3405   NI        0.271382    0.520368    0.685546     0.004307
PD3406   PD        0.275103    0.538398    0.645413     0.005394
PD3407   PD        0.311198    0.509372    0.647497     0.005394
NI3408   NI        0.297795    0.533946    0.688085     0.004307
PD3409   PD        0.325513    0.483878    0.685347     0.005394
PD3410   PD        0.344607    0.530010    0.644905     0.005394
PD3411   PD        0.377924    0.494702    0.643686     0.005394
PD3412   PD        0.374721    0.548270    0.683283     0.005394
PD3413   PD        0.408702    0.513504    0.684366     0.005394
PD3414   PD        0.408339    0.547046    0.649101     0.005394
PD3415   PD        0.439703    0.505286    0.651215     0.005394
PD3416   PD        0.442227    0.544161    0.682858     0.005394
PD3417   PD        0.477536    0.509170    0.677839     0.005394
PD3418   PD        0.468326    0.538543    0.655998     0.005394
PD3419   PD        0.501593    0.501840    0.656529     0.005394
PD3420   PD        0.510163    0.541476    0.683070     0.005394
PD3421   PD        0.544320    0.507686    0.684839     0.005394
PD3422   PD        0.548552    0.546072    0.655594     0.005394
PD3423   PD        0.584865    0.497892    0.651512     0.005394
NI3424   NI        0.579679    0.525945    0.711913     0.004307
PD3425   PD        0.610892    0.504928    0.676094     0.005394
PD3426   PD        0.613634    0.549234    0.649247     0.005394
NI3427   NI        0.648054    0.519158    0.669395     0.004307
NI3428   NI        0.640912    0.521971    0.706037     0.004307
NI3429   NI        0.682473    0.503361    0.695065     0.004307
NI3430   NI        0.670769    0.568251    0.640334     0.004307
PD3431   PD        0.718903    0.504112    0.647306     0.005394
NI3432   NI        0.733542    0.530741    0.681797     0.004307
NI3433   NI        0.762211    0.518145    0.679297     0.004307
NI3434   NI        0.756875    0.534479    0.642222     0.004307
NI3435   NI        0.800900    0.502242    0.654865     0.004307
NI3436   NI        0.137791    0.571295    0.681658     0.004307
NI3437   NI        0.135695    0.616197    0.639880     0.004307
NI3438   NI        0.151775    0.579522    0.663184     0.004307
NI3439   NI        0.160984    0.620975    0.686043     0.004307
NI3440   NI        0.184220    0.579701    0.696799     0.004307
NI3441   NI        0.185838    0.629388    0.644412     0.004307
NI3442   NI        0.223108    0.575101    0.636205     0.004307
NI3443   NI        0.245206    0.628235    0.688006     0.004307
PD3444   PD        0.280196    0.570806    0.677974     0.005394
NI3445   NI        0.243522    0.596124    0.664708     0.004307
PD3446   PD        0.306348    0.579614    0.644876     0.005394
NI3447   NI        0.286683    0.615299    0.675096     0.004307
NI3448   NI        0.329370    0.567886    0.703912     0.004307
NI3449   NI        0.322847    0.609936    0.663212     0.004307
PD3450   PD        0.377508    0.580964    0.648836     0.005394
PD3451   PD        0.375072    0.614640    0.681679     0.005394
PD3452   PD        0.410436    0.579676    0.684908     0.005394
PD3453   PD        0.396318    0.617804    0.637039     0.005394
PD3454   PD        0.444427    0.580408    0.651885     0.005394
PD3455   PD        0.444646    0.614285    0.686849     0.005394
PD3456   PD        0.477283    0.574353    0.685829     0.005394
PD3457   PD        0.479653    0.616331    0.651108     0.005394
NI3458   NI        0.518778    0.583115    0.662122     0.004307
NI3459   NI        0.537375    0.598684    0.701723     0.004307
PD3460   PD        0.547682    0.576894    0.688790     0.005394
NI3461   NI        0.546244    0.613556    0.656338     0.004307
PD3462   PD        0.578477    0.580238    0.651530     0.005394
NI3463   NI        0.581843    0.608355    0.688543     0.004307
NI3464   NI        0.615943    0.589492    0.675679     0.004307
PD3465   PD        0.615803    0.610330    0.657728     0.005394
NI3466   NI        0.646206    0.575220    0.642955     0.004307
NI3467   NI        0.652877    0.615676    0.679564     0.004307
NI3468   NI        0.669419    0.584393    0.684767     0.004307
NI3469   NI        0.679696    0.609426    0.643346     0.004307
NI3470   NI        0.715792    0.574574    0.647111     0.004307
NI3471   NI        0.710789    0.609312    0.679880     0.004307
NI3472   NI        0.758902    0.579127    0.719477     0.004307
NI3473   NI        0.747464    0.606724    0.650278     0.004307
NI3474   NI        0.146892    0.643736    0.663053     0.004307
NI3475   NI        0.201262    0.645936    0.685555     0.004307
NI3476   NI        0.204476    0.683024    0.657476     0.004307
NI3477   NI        0.227684    0.654963    0.648680     0.004307
NI3478   NI        0.220065    0.683894    0.680657     0.004307
NI3479   NI        0.269149    0.637944    0.674698     0.004307
NI3480   NI        0.270104    0.680804    0.648412     0.004307
PD3481   PD        0.305273    0.648765    0.647578     0.005394
NI3482   NI        0.300419    0.691819    0.677550     0.004307
PD3483   PD        0.342371    0.648904    0.682473     0.005394
NI3484   NI        0.327335    0.686257    0.652606     0.004307
PD3485   PD        0.377839    0.649240    0.649412     0.005394
PD3486   PD        0.374147    0.683381    0.680367     0.005394
NI3487   NI        0.396199    0.654696    0.694124     0.004307
PD3488   PD        0.412362    0.682076    0.650418     0.005394
PD3489   PD        0.445821    0.648091    0.653332     0.005394
NI3490   NI        0.434313    0.701983    0.691723     0.004307
NI3491   NI        0.477950    0.648749    0.691456     0.004307
NI3492   NI        0.480841    0.681778    0.657125     0.004307
NI3493   NI        0.503267    0.642024    0.652159     0.004307
NI3494   NI        0.514327    0.678895    0.692165     0.004307
PD3495   PD        0.547952    0.645119    0.690866     0.005394
NI3496   NI        0.547640    0.679789    0.657227     0.004307
NI3497   NI        0.581595    0.646815    0.657875     0.004307
NI3498   NI        0.576335    0.674210    0.680851     0.004307
NI3499   NI        0.600663    0.650893    0.691318     0.004307
NI3500   NI        0.616807    0.678616    0.657186     0.004307
PD3501   PD        0.646858    0.644109    0.641422     0.005394
NI3502   NI        0.651839    0.681090    0.678095     0.004307
NI3503   NI        0.683908    0.643040    0.693726     0.004307
NI3504   NI        0.681617    0.675720    0.644470     0.004307
NI3505   NI        0.716061    0.643266    0.644242     0.004307
NI3506   NI        0.221798    0.701202    0.664787     0.004307
NI3507   NI        0.261746    0.706363    0.691027     0.004307
NI3508   NI        0.260735    0.747080    0.663684     0.004307
NI3509   NI        0.294432    0.730764    0.655633     0.004307
NI3510   NI        0.304237    0.749641    0.674808     0.004307
NI3511   NI        0.339773    0.717906    0.679348     0.004307
NI3512   NI        0.338718    0.744092    0.639714     0.004307
NI3513   NI        0.368477    0.706236    0.638502     0.004307
NI3514   NI        0.376108    0.741849    0.678677     0.004307
NI3515   NI        0.408100    0.717243    0.679733     0.004307
NI3516   NI        0.409239    0.751395    0.645999     0.004307
PD3517   PD        0.445732    0.717648    0.646324     0.005394
NI3518   NI        0.442882    0.750697    0.680647     0.004307
NI3519   NI        0.477289    0.718370    0.680601     0.004307
NI3520   NI        0.482143    0.749489    0.647411     0.004307
NI3521   NI        0.512405    0.710719    0.643633     0.004307
NI3522   NI        0.516500    0.741934    0.681490     0.004307
NI3523   NI        0.545933    0.707352    0.680272     0.004307
NI3524   NI        0.547282    0.743767    0.646146     0.004307
NI3525   NI        0.585127    0.712614    0.659635     0.004307
NI3526   NI        0.586425    0.746219    0.694019     0.004307
NI3527   NI        0.619394    0.710567    0.692664     0.004307
NI3528   NI        0.607816    0.766666    0.623860     0.004307
NI3529   NI        0.655578    0.734898    0.642983     0.004307
NI3530   NI        0.362692    0.763162    0.637736     0.004307
NI3531   NI        0.413335    0.784442    0.699235     0.004307
NI3532   NI        0.444367    0.776948    0.646094     0.004307
NI3533   NI        0.453102    0.797162    0.674424     0.004307
NI3534   NI        0.512034    0.786059    0.647537     0.004307
NI3535   NI        0.414301    0.140841    0.704435     0.004307
NI3536   NI        0.477694    0.126731    0.708468     0.004307
NI3537   NI        0.267130    0.157168    0.746424     0.004307
PD3538   PD        0.302302    0.157909    0.712755     0.005394
NI3539   NI        0.323651    0.171521    0.775548     0.004307
PD3540   PD        0.335955    0.191694    0.711477     0.005394
NI3541   NI        0.380496    0.140230    0.739205     0.004307
NI3542   NI        0.371934    0.191826    0.745110     0.004307
NI3543   NI        0.404869    0.177803    0.735234     0.004307
PD3544   PD        0.407495    0.195444    0.712238     0.005394
NI3545   NI        0.427258    0.137030    0.732548     0.004307
NI3546   NI        0.439961    0.197592    0.759986     0.004307
NI3547   NI        0.480181    0.171645    0.746983     0.004307
NI3548   NI        0.456595    0.155926    0.705862     0.004307
NI3549   NI        0.522099    0.165435    0.734551     0.004307
NI3550   NI        0.531283    0.179395    0.747870     0.004307
NI3551   NI        0.544657    0.198381    0.707997     0.004307
NI3552   NI        0.576760    0.166525    0.709213     0.004307
NI3553   NI        0.577121    0.197007    0.743067     0.004307
NI3554   NI        0.642499    0.217716    0.716032     0.004307
NI3555   NI        0.226531    0.289370    0.717539     0.004307
NI3556   NI        0.234591    0.227679    0.711142     0.004307
NI3557   NI        0.233060    0.260202    0.746674     0.004307
NI3558   NI        0.266687    0.226442    0.745941     0.004307
PD3559   PD        0.269304    0.262281    0.712328     0.005394
PD3560   PD        0.301906    0.225647    0.712283     0.005394
PD3561   PD        0.302776    0.257369    0.745546     0.005394
PD3562   PD        0.337309    0.226551    0.745131     0.005394
PD3563   PD        0.337319    0.260928    0.710775     0.005394
PD3564   PD        0.372041    0.228745    0.711379     0.005394
NI3565   NI        0.383160    0.259900    0.722383     0.004307
NI3566   NI        0.402491    0.217261    0.771568     0.004307
PD3567   PD        0.400653    0.257750    0.714840     0.005394
NI3568   NI        0.423039    0.215862    0.719267     0.004307
NI3569   NI        0.430413    0.251989    0.751897     0.004307
NI3570   NI        0.471975    0.229088    0.745582     0.004307
NI3571   NI        0.463856    0.275079    0.729211     0.004307
NI3572   NI        0.508368    0.233758    0.708183     0.004307
NI3573   NI        0.506460    0.260646    0.750333     0.004307
NI3574   NI        0.539576    0.229707    0.748604     0.004307
NI3575   NI        0.545297    0.259326    0.723847     0.004307
NI3576   NI        0.595557    0.222537    0.716498     0.004307
NI3577   NI        0.580215    0.264587    0.740996     0.004307
NI3578   NI        0.618459    0.202749    0.755473     0.004307
NI3579   NI        0.625592    0.260087    0.719999     0.004307
NI3580   NI        0.652212    0.226897    0.732369     0.004307
NI3581   NI        0.647292    0.265616    0.745981     0.004307
NI3582   NI        0.691338    0.263386    0.718844     0.004307
NI3583   NI        0.167760    0.305925    0.718156     0.004307
NI3584   NI        0.203341    0.297409    0.746804     0.004307
PD3585   PD        0.200384    0.329261    0.713157     0.005394
PD3586   PD        0.233007    0.294405    0.711553     0.005394
NI3587   NI        0.235019    0.330711    0.745852     0.004307
NI3588   NI        0.251547    0.294832    0.741496     0.004307
NI3589   NI        0.269923    0.326421    0.714883     0.004307
PD3590   PD        0.302332    0.295644    0.714119     0.005394
NI3591   NI        0.304395    0.322935    0.762526     0.004307
NI3592   NI        0.336478    0.292739    0.747209     0.004307
PD3593   PD        0.337358    0.327695    0.712014     0.005394
NI3594   NI        0.366715    0.301070    0.730478     0.004307
PD3595   PD        0.371496    0.327232    0.745627     0.005394
PD3596   PD        0.405757    0.293759    0.745459     0.005394
PD3597   PD        0.417897    0.341244    0.705981     0.005394
NI3598   NI        0.439871    0.282169    0.730085     0.004307
NI3599   NI        0.427032    0.326853    0.746187     0.004307
NI3600   NI        0.492308    0.291859    0.723742     0.004307
NI3601   NI        0.470155    0.320787    0.730566     0.004307
NI3602   NI        0.503745    0.301463    0.728200     0.004307
NI3603   NI        0.530372    0.332489    0.742883     0.004307
NI3604   NI        0.546305    0.294783    0.757663     0.004307
NI3605   NI        0.533804    0.319517    0.734378     0.004307
NI3606   NI        0.573062    0.296274    0.716845     0.004307
NI3607   NI        0.580328    0.331332    0.736481     0.004307
NI3608   NI        0.615071    0.297835    0.744171     0.004307
NI3609   NI        0.617093    0.336365    0.710203     0.004307
NI3610   NI        0.655952    0.296071    0.717472     0.004307
NI3611   NI        0.659785    0.319463    0.742163     0.004307
NI3612   NI        0.683843    0.297001    0.744016     0.004307
NI3613   NI        0.682803    0.333242    0.712137     0.004307
NI3614   NI        0.717918    0.297931    0.710005     0.004307
NI3615   NI        0.129431    0.393801    0.715346     0.004307
NI3616   NI        0.167500    0.363961    0.714107     0.004307
NI3617   NI        0.152646    0.411637    0.740431     0.004307
NI3618   NI        0.203117    0.365157    0.745743     0.004307
NI3619   NI        0.206846    0.396558    0.710077     0.004307
NI3620   NI        0.208834    0.372404    0.736746     0.004307
NI3621   NI        0.231735    0.416078    0.770942     0.004307
NI3622   NI        0.283262    0.372090    0.759179     0.004307
NI3623   NI        0.257516    0.401119    0.714458     0.004307
NI3624   NI        0.290107    0.341674    0.720870     0.004307
NI3625   NI        0.307032    0.411138    0.751520     0.004307
NI3626   NI        0.334584    0.375764    0.752704     0.004307
NI3627   NI        0.336781    0.413357    0.718548     0.004307
PD3628   PD        0.372256    0.360634    0.710742     0.005394
NI3629   NI        0.369623    0.410254    0.752712     0.004307
NI3630   NI        0.424454    0.358244    0.771449     0.004307
NI3631   NI        0.412881    0.418968    0.735092     0.004307
PD3632   PD        0.452363    0.364804    0.730259     0.005394
PD3633   PD        0.448038    0.399561    0.763197     0.005394
PD3634   PD        0.472934    0.367880    0.739242     0.005394
NI3635   NI        0.484849    0.396797    0.724521     0.004307
PD3636   PD        0.519879    0.364061    0.724939     0.005394
NI3637   NI        0.490725    0.388234    0.745542     0.004307
NI3638   NI        0.553756    0.361817    0.758530     0.004307
PD3639   PD        0.547048    0.400696    0.712796     0.005394
NI3640   NI        0.578839    0.364687    0.718780     0.004307
NI3641   NI        0.575471    0.382389    0.771539     0.004307
NI3642   NI        0.609576    0.364900    0.743504     0.004307
NI3643   NI        0.600536    0.401435    0.706346     0.004307
NI3644   NI        0.656460    0.363511    0.718663     0.004307
NI3645   NI        0.660200    0.388795    0.762746     0.004307
NI3646   NI        0.691532    0.381827    0.747625     0.004307
NI3647   NI        0.690529    0.398701    0.717983     0.004307
NI3648   NI        0.723899    0.364533    0.712604     0.004307
NI3649   NI        0.724115    0.407970    0.744621     0.004307
NI3650   NI        0.756603    0.421203    0.711567     0.004307
NI3651   NI        0.123233    0.476385    0.735817     0.004307
NI3652   NI        0.176487    0.439753    0.710751     0.004307
NI3653   NI        0.139067    0.447249    0.770338     0.004307
NI3654   NI        0.183620    0.422422    0.756124     0.004307
NI3655   NI        0.200916    0.466459    0.711249     0.004307
NI3656   NI        0.219753    0.438173    0.730867     0.004307
NI3657   NI        0.250496    0.489343    0.760174     0.004307
NI3658   NI        0.268527    0.431194    0.744741     0.004307
NI3659   NI        0.256754    0.464235    0.719514     0.004307
PD3660   PD        0.295970    0.437926    0.712369     0.005394
NI3661   NI        0.307381    0.453864    0.766761     0.004307
NI3662   NI        0.355832    0.438929    0.779403     0.004307
PD3663   PD        0.342083    0.455544    0.717707     0.005394
PD3664   PD        0.379585    0.442637    0.717062     0.005394
NI3665   NI        0.354037    0.453694    0.766320     0.004307
PD3666   PD        0.414245    0.426573    0.748111     0.005394
PD3667   PD        0.404105    0.465151    0.716932     0.005394
PD3668   PD        0.424393    0.423682    0.718254     0.005394
PD3669   PD        0.442134    0.466320    0.742867     0.005394
PD3670   PD        0.477070    0.434313    0.740110     0.005394
PD3671   PD        0.486872    0.481016    0.711050     0.005394
PD3672   PD        0.502727    0.441543    0.712002     0.005394
PD3673   PD        0.511957    0.469812    0.750405     0.005394
NI3674   NI        0.548037    0.445454    0.755417     0.004307
PD3675   PD        0.543167    0.470083    0.714231     0.005394
PD3676   PD        0.573472    0.437894    0.700460     0.005394
PD3677   PD        0.580826    0.469341    0.744730     0.005394
NI3678   NI        0.613459    0.434365    0.747430     0.004307
NI3679   NI        0.617647    0.481087    0.718924     0.004307
NI3680   NI        0.649720    0.434567    0.711530     0.004307
NI3681   NI        0.649671    0.480211    0.755314     0.004307
NI3682   NI        0.683990    0.435673    0.747822     0.004307
NI3683   NI        0.684645    0.469628    0.715308     0.004307
NI3684   NI        0.713614    0.438517    0.708554     0.004307
NI3685   NI        0.733635    0.438948    0.749878     0.004307
NI3686   NI        0.750770    0.469463    0.716490     0.004307
NI3687   NI        0.147783    0.515906    0.721750     0.004307
NI3688   NI        0.188802    0.504468    0.735642     0.004307
NI3689   NI        0.209555    0.541913    0.712968     0.004307
NI3690   NI        0.239624    0.503661    0.716505     0.004307
NI3691   NI        0.225338    0.532082    0.753140     0.004307
NI3692   NI        0.266243    0.484600    0.761330     0.004307
NI3693   NI        0.257930    0.547688    0.710178     0.004307
NI3694   NI        0.304482    0.511903    0.711097     0.004307
NI3695   NI        0.309842    0.538805    0.748388     0.004307
NI3696   NI        0.352631    0.519764    0.758815     0.004307
NI3697   NI        0.341310    0.542203    0.711404     0.004307
PD3698   PD        0.385250    0.507959    0.705965     0.005394
NI3699   NI        0.387833    0.557280    0.774883     0.004307
NI3700   NI        0.409107    0.512392    0.752114     0.004307
PD3701   PD        0.409509    0.547226    0.718960     0.005394
PD3702   PD        0.447424    0.508266    0.715068     0.005394
NI3703   NI        0.441429    0.541200    0.750162     0.004307
PD3704   PD        0.473952    0.502356    0.746590     0.005394
PD3705   PD        0.476749    0.543280    0.718900     0.005394
PD3706   PD        0.508595    0.506685    0.715948     0.005394
NI3707   NI        0.524434    0.565802    0.730443     0.004307
NI3708   NI        0.544715    0.502274    0.751372     0.004307
PD3709   PD        0.545291    0.537762    0.717057     0.005394
PD3710   PD        0.577676    0.503907    0.716894     0.005394
PD3711   PD        0.579507    0.536165    0.751663     0.005394
NI3712   NI        0.612968    0.502568    0.742839     0.004307
NI3713   NI        0.631459    0.542975    0.705956     0.004307
NI3714   NI        0.659422    0.502505    0.704257     0.004307
NI3715   NI        0.647665    0.534911    0.749099     0.004307
NI3716   NI        0.681326    0.505531    0.745400     0.004307
NI3717   NI        0.686397    0.538772    0.708485     0.004307
NI3718   NI        0.717268    0.505758    0.715048     0.004307
NI3719   NI        0.169643    0.583227    0.713434     0.004307
NI3720   NI        0.186966    0.560999    0.749527     0.004307
NI3721   NI        0.196047    0.586162    0.715182     0.004307
NI3722   NI        0.226784    0.581835    0.716918     0.004307
NI3723   NI        0.228450    0.597570    0.773518     0.004307
NI3724   NI        0.259884    0.566440    0.755992     0.004307
NI3725   NI        0.251008    0.610276    0.733236     0.004307
NI3726   NI        0.307267    0.578047    0.717135     0.004307
NI3727   NI        0.304273    0.613632    0.746420     0.004307
PD3728   PD        0.337796    0.579089    0.749570     0.005394
PD3729   PD        0.339933    0.614655    0.715346     0.005394
NI3730   NI        0.354789    0.583752    0.709936     0.004307
NI3731   NI        0.372179    0.613208    0.749573     0.004307
NI3732   NI        0.406636    0.581694    0.754044     0.004307
PD3733   PD        0.406957    0.614290    0.719048     0.005394
PD3734   PD        0.441609    0.573932    0.717534     0.005394
NI3735   NI        0.447960    0.616510    0.787730     0.004307
NI3736   NI        0.475192    0.572810    0.751991     0.004307
NI3737   NI        0.485764    0.622231    0.730718     0.004307
NI3738   NI        0.498564    0.587074    0.727270     0.004307
NI3739   NI        0.511361    0.604282    0.755002     0.004307
NI3740   NI        0.570080    0.570220    0.771228     0.004307
PD3741   PD        0.546454    0.608767    0.723143     0.005394
PD3742   PD        0.579477    0.573704    0.723419     0.005394
NI3743   NI        0.579295    0.607983    0.758043     0.004307
NI3744   NI        0.612876    0.571575    0.755412     0.004307
NI3745   NI        0.609272    0.608519    0.709707     0.004307
NI3746   NI        0.649144    0.572805    0.722444     0.004307
NI3747   NI        0.648321    0.603881    0.760102     0.004307
NI3748   NI        0.675496    0.572356    0.743633     0.004307
NI3749   NI        0.683290    0.605720    0.725858     0.004307
NI3750   NI        0.723595    0.572524    0.706149     0.004307
NI3751   NI        0.236228    0.650681    0.710629     0.004307
NI3752   NI        0.269616    0.650386    0.748283     0.004307
NI3753   NI        0.271214    0.682001    0.712335     0.004307
PD3754   PD        0.306541    0.649745    0.715345     0.005394
NI3755   NI        0.313905    0.660958    0.757973     0.004307
NI3756   NI        0.336915    0.647442    0.750654     0.004307
NI3757   NI        0.339152    0.684603    0.715209     0.004307
PD3758   PD        0.372281    0.649719    0.716754     0.005394
NI3759   NI        0.368049    0.701856    0.775420     0.004307
NI3760   NI        0.405292    0.632648    0.746680     0.004307
NI3761   NI        0.406012    0.695700    0.707892     0.004307
NI3762   NI        0.444209    0.642138    0.723089     0.004307
NI3763   NI        0.422768    0.675594    0.748537     0.004307
NI3764   NI        0.477179    0.639936    0.755685     0.004307
NI3765   NI        0.474374    0.666576    0.712322     0.004307
NI3766   NI        0.512845    0.641336    0.724555     0.004307
NI3767   NI        0.498432    0.676123    0.754797     0.004307
NI3768   NI        0.546905    0.641144    0.757563     0.004307
NI3769   NI        0.541682    0.670912    0.711768     0.004307
NI3770   NI        0.579544    0.644315    0.726712     0.004307
NI3771   NI        0.580033    0.673859    0.763490     0.004307
NI3772   NI        0.613680    0.638189    0.747350     0.004307
NI3773   NI        0.613414    0.676128    0.710913     0.004307
NI3774   NI        0.653859    0.649026    0.713971     0.004307
NI3775   NI        0.303954    0.716961    0.712451     0.004307
NI3776   NI        0.372081    0.718182    0.714827     0.004307
NI3777   NI        0.407254    0.719047    0.748570     0.004307
NI3778   NI        0.407023    0.752381    0.713549     0.004307
NI3779   NI        0.436080    0.719374    0.735929     0.004307
NI3780   NI        0.477570    0.714976    0.746464     0.004307
NI3781   NI        0.478577    0.746775    0.713631     0.004307
NI3782   NI        0.514203    0.714974    0.715358     0.004307
NI3783   NI        0.576729    0.702542    0.711047     0.004307
NI3784   NI        0.413189    0.198032    0.798255     0.004307
NI3785   NI        0.496708    0.191984    0.792986     0.004307
NI3786   NI        0.285333    0.255904    0.803939     0.004307
NI3787   NI        0.351449    0.269789    0.807133     0.004307
NI3788   NI        0.389385    0.240296    0.808785     0.004307
NI3789   NI        0.364811    0.282544    0.845653     0.004307
NI3790   NI        0.412073    0.266996    0.792976     0.004307
NI3791   NI        0.443299    0.230910    0.794453     0.004307
NI3792   NI        0.431491    0.254590    0.830616     0.004307
NI3793   NI        0.498952    0.243007    0.794507     0.004307
NI3794   NI        0.509796    0.236041    0.777273     0.004307
NI3795   NI        0.514084    0.263252    0.827255     0.004307
NI3796   NI        0.546507    0.264684    0.777883     0.004307
NI3797   NI        0.627078    0.258337    0.788414     0.004307
NI3798   NI        0.268096    0.331366    0.779166     0.004307
NI3799   NI        0.301716    0.295520    0.781301     0.004307
NI3800   NI        0.305726    0.334963    0.810287     0.004307
NI3801   NI        0.339804    0.301533    0.810322     0.004307
NI3802   NI        0.353341    0.331925    0.805280     0.004307
PD3803   PD        0.371818    0.295722    0.779380     0.005394
NI3804   NI        0.391254    0.331508    0.834876     0.004307
NI3805   NI        0.403585    0.292354    0.817787     0.004307
NI3806   NI        0.405401    0.332741    0.774933     0.004307
NI3807   NI        0.458825    0.275493    0.796351     0.004307
NI3808   NI        0.426025    0.312476    0.801641     0.004307
NI3809   NI        0.465721    0.313312    0.828193     0.004307
NI3810   NI        0.492770    0.336891    0.798117     0.004307
NI3811   NI        0.503243    0.290305    0.787516     0.004307
NI3812   NI        0.508794    0.329856    0.811988     0.004307
NI3813   NI        0.543732    0.290174    0.849552     0.004307
NI3814   NI        0.541435    0.329048    0.792111     0.004307
NI3815   NI        0.571272    0.289504    0.797562     0.004307
NI3816   NI        0.574160    0.324031    0.830738     0.004307
NI3817   NI        0.601111    0.348856    0.796385     0.004307
NI3818   NI        0.202966    0.399832    0.779871     0.004307
NI3819   NI        0.237595    0.369912    0.775359     0.004307
NI3820   NI        0.268202    0.362812    0.814900     0.004307
NI3821   NI        0.273414    0.399074    0.781608     0.004307
NI3822   NI        0.281095    0.375211    0.799931     0.004307
NI3823   NI        0.306347    0.402178    0.815083     0.004307
NI3824   NI        0.332338    0.374353    0.837145     0.004307
NI3825   NI        0.340517    0.411081    0.787121     0.004307
NI3826   NI        0.362165    0.378777    0.790205     0.004307
NI3827   NI        0.375732    0.412321    0.822823     0.004307
NI3828   NI        0.402513    0.367097    0.812250     0.004307
NI3829   NI        0.401682    0.398743    0.763279     0.004307
NI3830   NI        0.437497    0.367480    0.777308     0.004307
NI3831   NI        0.442532    0.416370    0.825561     0.004307
NI3832   NI        0.475324    0.339801    0.841460     0.004307
NI3833   NI        0.485151    0.405243    0.786071     0.004307
NI3834   NI        0.523421    0.368234    0.773652     0.004307
NI3835   NI        0.498762    0.388045    0.830223     0.004307
NI3836   NI        0.557132    0.361606    0.808291     0.004307
NI3837   NI        0.525341    0.383201    0.790947     0.004307
NI3838   NI        0.581245    0.364444    0.767274     0.004307
NI3839   NI        0.612487    0.398480    0.849826     0.004307
NI3840   NI        0.602554    0.371093    0.810998     0.004307
NI3841   NI        0.614716    0.399597    0.778320     0.004307
NI3842   NI        0.647263    0.364642    0.779358     0.004307
NI3843   NI        0.677149    0.394797    0.792603     0.004307
NI3844   NI        0.216961    0.476510    0.791763     0.004307
NI3845   NI        0.224244    0.463329    0.771821     0.004307
NI3846   NI        0.270453    0.429521    0.818267     0.004307
NI3847   NI        0.298805    0.465761    0.792187     0.004307
NI3848   NI        0.308273    0.442207    0.793296     0.004307
NI3849   NI        0.299732    0.465007    0.835126     0.004307
NI3850   NI        0.335899    0.414428    0.811096     0.004307
NI3851   NI        0.341532    0.478201    0.784459     0.004307
NI3852   NI        0.375906    0.425891    0.788349     0.004307
NI3853   NI        0.371793    0.470676    0.808659     0.004307
NI3854   NI        0.395654    0.427338    0.819793     0.004307
NI3855   NI        0.394594    0.469789    0.780581     0.004307
NI3856   NI        0.429783    0.449225    0.793838     0.004307
NI3857   NI        0.439343    0.466559    0.814171     0.004307
NI3858   NI        0.476934    0.447052    0.821739     0.004307
NI3859   NI        0.475392    0.466428    0.780117     0.004307
NI3860   NI        0.511139    0.447075    0.787707     0.004307
NI3861   NI        0.510903    0.463493    0.810384     0.004307
NI3862   NI        0.545971    0.447815    0.823892     0.004307
NI3863   NI        0.533391    0.487312    0.799290     0.004307
NI3864   NI        0.581379    0.447314    0.788444     0.004307
NI3865   NI        0.576027    0.485545    0.819021     0.004307
NI3866   NI        0.612113    0.429902    0.813969     0.004307
NI3867   NI        0.614368    0.466986    0.783010     0.004307
NI3868   NI        0.646023    0.432043    0.780545     0.004307
NI3869   NI        0.674704    0.470703    0.777107     0.004307
NI3870   NI        0.242433    0.521274    0.796508     0.004307
NI3871   NI        0.280141    0.506483    0.816049     0.004307
NI3872   NI        0.280028    0.544108    0.816936     0.004307
NI3873   NI        0.304564    0.511714    0.784774     0.004307
NI3874   NI        0.302573    0.546048    0.819195     0.004307
NI3875   NI        0.328245    0.537379    0.817220     0.004307
NI3876   NI        0.345353    0.538795    0.775544     0.004307
NI3877   NI        0.376115    0.511854    0.785734     0.004307
NI3878   NI        0.404501    0.524561    0.849983     0.004307
NI3879   NI        0.407682    0.497548    0.814854     0.004307
NI3880   NI        0.407424    0.546158    0.786603     0.004307
NI3881   NI        0.454233    0.524626    0.795801     0.004307
NI3882   NI        0.438608    0.533510    0.817328     0.004307
NI3883   NI        0.483242    0.501834    0.829336     0.004307
NI3884   NI        0.473109    0.535501    0.779464     0.004307
NI3885   NI        0.510833    0.500430    0.779739     0.004307
NI3886   NI        0.510849    0.535771    0.822031     0.004307
NI3887   NI        0.562950    0.493703    0.836187     0.004307
NI3888   NI        0.544488    0.534680    0.785738     0.004307
NI3889   NI        0.595436    0.508554    0.786760     0.004307
NI3890   NI        0.577334    0.532455    0.818615     0.004307
NI3891   NI        0.617308    0.506620    0.827621     0.004307
NI3892   NI        0.617413    0.556131    0.772691     0.004307
NI3893   NI        0.657928    0.521731    0.778552     0.004307
NI3894   NI        0.275510    0.602549    0.784751     0.004307
NI3895   NI        0.303465    0.565407    0.782286     0.004307
NI3896   NI        0.339461    0.572020    0.809343     0.004307
NI3897   NI        0.336240    0.615274    0.782102     0.004307
NI3898   NI        0.401787    0.587646    0.806765     0.004307
NI3899   NI        0.373251    0.602347    0.809645     0.004307
NI3900   NI        0.405501    0.569645    0.817505     0.004307
NI3901   NI        0.405282    0.601603    0.783459     0.004307
NI3902   NI        0.443431    0.569304    0.788724     0.004307
NI3903   NI        0.453536    0.596504    0.828437     0.004307
NI3904   NI        0.485073    0.587907    0.809395     0.004307
NI3905   NI        0.478630    0.603208    0.788709     0.004307
NI3906   NI        0.500155    0.589118    0.805812     0.004307
NI3907   NI        0.508231    0.614524    0.822391     0.004307
NI3908   NI        0.545113    0.568483    0.821649     0.004307
NI3909   NI        0.543213    0.604272    0.791091     0.004307
NI3910   NI        0.578023    0.569352    0.789534     0.004307
NI3911   NI        0.613821    0.602110    0.790301     0.004307
NI3912   NI        0.336092    0.649275    0.817037     0.004307
NI3913   NI        0.407983    0.685842    0.783925     0.004307
NI3914   NI        0.440181    0.649348    0.783409     0.004307
NI3915   NI        0.442330    0.686421    0.817334     0.004307
NI3916   NI        0.510240    0.637621    0.783455     0.004307
NI3917   NI        0.410369    0.395821    0.849153     0.004307
NI3918   NI        0.441017    0.371695    0.844861     0.004307
NI3919   NI        0.508558    0.389635    0.873488     0.004307
NI3920   NI        0.371607    0.446224    0.856362     0.004307
NI3921   NI        0.398586    0.465975    0.846201     0.004307
NI3922   NI        0.440999    0.454846    0.854229     0.004307
NI3923   NI        0.474307    0.493150    0.883843     0.004307
NI3924   NI        0.509754    0.432388    0.846907     0.004307
NI3925   NI        0.438912    0.498807    0.850931     0.004307
