data_00001
_audit_creation_method   'DISCUS'

_data_chemical_name_common 'Cu.cell Pearson1985'

_cell_length_a             57.8368
_cell_length_b             57.8368
_cell_length_c             54.2220
_cell_angle_alpha     90.0000
_cell_angle_beta      90.0000
_cell_angle_gamma     90.0000

_symmetry_space_group_name_H-M   'P1              '

loop_
_atom_site_label
_atom_site_symbol
_atom_site_fract_x
_atom_site_fract_y
_atom_site_fract_z
_atom_site_u_iso_or_equiv
NI1   NI        0.362873    0.340067    0.006166     0.004307
CU2   CU        0.398630    0.309255    0.007731     0.006663
NI3   NI        0.431185    0.337883    0.004816     0.004307
NI4   NI        0.464331    0.309063    0.004100     0.004307
NI5   NI        0.496255    0.343038    0.003683     0.004307
NI6   NI        0.300821    0.409432    0.002437     0.004307
CU7   CU        0.331553    0.378360    0.005039     0.006663
NI8   NI        0.363084    0.409423    0.005875     0.004307
NI9   NI        0.397990    0.374954    0.002096     0.004307
NI10   NI        0.435487    0.407270    0.003682     0.004307
NI11   NI        0.464222    0.375259    0.004603     0.004307
NI12   NI        0.498723    0.409287    0.003237     0.004307
NI13   NI        0.527542    0.374592    0.003013     0.004307
NI14   NI        0.563445    0.409882    0.002422     0.004307
NI15   NI        0.299738    0.475153    0.003018     0.004307
NI16   NI        0.331571    0.445057    0.002912     0.004307
CU17   CU        0.362660    0.474425    0.004740     0.006663
NI18   NI        0.400060    0.440497    0.003911     0.004307
NI19   NI        0.433137    0.475263    0.002153     0.004307
NI20   NI        0.467120    0.444979    0.001475     0.004307
NI21   NI        0.495930    0.480130    0.001915     0.004307
NI22   NI        0.532772    0.441383    0.004561     0.004307
NI23   NI        0.563522    0.477526    0.005696     0.004307
NI24   NI        0.328913    0.510847    0.005410     0.004307
NI25   NI        0.364732    0.542266    0.004341     0.004307
NI26   NI        0.395059    0.509627    0.000667     0.004307
NI27   NI        0.432912    0.542053    0.004103     0.004307
NI28   NI        0.462179    0.510650    0.002988     0.004307
NI29   NI        0.495846    0.542252    0.000995     0.004307
NI30   NI        0.533214    0.511569    0.003649     0.004307
NI31   NI        0.398444    0.571614    0.002111     0.004307
NI32   NI        0.462711    0.572515    0.002927     0.004307
NI33   NI        0.297650    0.213931    0.072414     0.004307
NI34   NI        0.364270    0.213221    0.068478     0.004307
NI35   NI        0.397054    0.180669    0.069569     0.004307
NI36   NI        0.432084    0.212453    0.067297     0.004307
NI37   NI        0.465427    0.180907    0.068414     0.004307
NI38   NI        0.498018    0.213338    0.069041     0.004307
CU39   CU        0.562663    0.215150    0.068252     0.006663
NI40   NI        0.234850    0.278493    0.071539     0.004307
NI41   NI        0.265527    0.244152    0.070715     0.004307
NI42   NI        0.300404    0.279280    0.069724     0.004307
NI43   NI        0.329991    0.244491    0.068467     0.004307
CU44   CU        0.330045    0.278439    0.034984     0.006663
NI45   NI        0.362999    0.244571    0.036438     0.004307
NI46   NI        0.364957    0.277187    0.065404     0.004307
NI47   NI        0.396338    0.241363    0.069032     0.004307
NI48   NI        0.397742    0.275068    0.037474     0.004307
NI49   NI        0.428188    0.245281    0.038419     0.004307
NI50   NI        0.431610    0.276451    0.067211     0.004307
NI51   NI        0.461623    0.244342    0.068316     0.004307
NI52   NI        0.463578    0.275418    0.036905     0.004307
NI53   NI        0.498143    0.246354    0.037989     0.004307
CU54   CU        0.497781    0.277086    0.066703     0.006663
NI55   NI        0.530339    0.244206    0.066070     0.004307
CU56   CU        0.531069    0.275261    0.035873     0.006663
CU57   CU        0.563424    0.278956    0.065974     0.006663
NI58   NI        0.594707    0.245769    0.067905     0.004307
NI59   NI        0.625664    0.278715    0.066461     0.004307
NI60   NI        0.204945    0.312471    0.066402     0.004307
CU61   CU        0.232022    0.344846    0.065940     0.006663
NI62   NI        0.267825    0.310003    0.067231     0.004307
NI63   NI        0.268197    0.343005    0.033937     0.004307
NI64   NI        0.298556    0.308206    0.036779     0.004307
CU65   CU        0.298150    0.341919    0.064617     0.006663
CU66   CU        0.331220    0.309840    0.065336     0.006663
CU67   CU        0.331044    0.344204    0.035193     0.006663
CU68   CU        0.363613    0.309474    0.035863     0.006663
NI69   NI        0.363445    0.342098    0.064392     0.004307
NI70   NI        0.395360    0.309113    0.065452     0.004307
CU71   CU        0.398496    0.344293    0.033471     0.006663
NI72   NI        0.432253    0.308409    0.035520     0.004307
NI73   NI        0.430352    0.341110    0.064032     0.004307
NI74   NI        0.464694    0.310387    0.065883     0.004307
NI75   NI        0.463750    0.340594    0.035160     0.004307
NI76   NI        0.496748    0.310280    0.034713     0.004307
NI77   NI        0.498294    0.343070    0.065455     0.004307
NI78   NI        0.530019    0.309487    0.063814     0.004307
CU79   CU        0.528722    0.342794    0.034065     0.006663
NI80   NI        0.562402    0.310508    0.033996     0.004307
NI81   NI        0.566082    0.343878    0.064406     0.004307
NI82   NI        0.595158    0.312232    0.065960     0.004307
NI83   NI        0.597739    0.344169    0.034355     0.004307
CU84   CU        0.629776    0.342902    0.067799     0.006663
NI85   NI        0.656320    0.310570    0.070324     0.004307
NI86   NI        0.171236    0.410537    0.067569     0.004307
NI87   NI        0.202233    0.375440    0.067009     0.004307
NI88   NI        0.234401    0.378063    0.035017     0.004307
NI89   NI        0.234867    0.410362    0.065792     0.004307
CU90   CU        0.265607    0.376593    0.064205     0.006663
CU91   CU        0.265920    0.410556    0.034022     0.006663
NI92   NI        0.300058    0.378051    0.033251     0.004307
NI93   NI        0.298312    0.408520    0.063949     0.004307
NI94   NI        0.332256    0.376441    0.063165     0.004307
CU95   CU        0.330772    0.409087    0.032926     0.006663
NI96   NI        0.366226    0.375173    0.032104     0.004307
NI97   NI        0.364505    0.406387    0.062291     0.004307
CU98   CU        0.398289    0.374568    0.065326     0.006663
NI99   NI        0.399187    0.408322    0.033832     0.004307
NI100   NI        0.429016    0.375217    0.032625     0.004307
NI101   NI        0.431084    0.407867    0.063900     0.004307
CU102   CU        0.463934    0.377617    0.061251     0.006663
CU103   CU        0.465209    0.411013    0.032219     0.006663
NI104   NI        0.499800    0.376757    0.034618     0.004307
CU105   CU        0.496238    0.409503    0.064428     0.006663
NI106   NI        0.530062    0.377799    0.065101     0.004307
CU107   CU        0.530366    0.410916    0.038036     0.006663
NI108   NI        0.565033    0.379004    0.036864     0.004307
NI109   NI        0.564091    0.411295    0.067625     0.004307
NI110   NI        0.597067    0.376151    0.066931     0.004307
NI111   NI        0.598596    0.410938    0.037131     0.004307
NI112   NI        0.628845    0.376498    0.035505     0.004307
NI113   NI        0.629211    0.408730    0.069106     0.004307
CU114   CU        0.661885    0.377980    0.067649     0.006663
CU115   CU        0.694640    0.408574    0.070451     0.006663
NI116   NI        0.171256    0.477213    0.065575     0.004307
NI117   NI        0.203524    0.443452    0.066071     0.004307
NI118   NI        0.234895    0.443401    0.035681     0.004307
NI119   NI        0.233294    0.473545    0.068457     0.004307
NI120   NI        0.265564    0.442709    0.065256     0.004307
CU121   CU        0.265806    0.475091    0.034598     0.006663
NI122   NI        0.299181    0.442987    0.032067     0.004307
NI123   NI        0.300481    0.476837    0.063952     0.004307
CU124   CU        0.333268    0.442151    0.063046     0.006663
NI125   NI        0.331075    0.477062    0.035702     0.004307
NI126   NI        0.365554    0.442217    0.035055     0.004307
NI127   NI        0.365569    0.476056    0.062802     0.004307
CU128   CU        0.398997    0.442235    0.061627     0.006663
NI129   NI        0.397914    0.474208    0.032057     0.004307
NI130   NI        0.430767    0.442969    0.033051     0.004307
NI131   NI        0.431401    0.474620    0.063452     0.004307
CU132   CU        0.466621    0.444693    0.063243     0.006663
NI133   NI        0.462938    0.476302    0.032746     0.004307
CU134   CU        0.497928    0.440891    0.031581     0.006663
NI135   NI        0.498545    0.475058    0.064001     0.004307
NI136   NI        0.530791    0.445108    0.064711     0.004307
NI137   NI        0.530251    0.474510    0.033866     0.004307
NI138   NI        0.566204    0.441863    0.035872     0.004307
NI139   NI        0.564066    0.476303    0.064545     0.004307
NI140   NI        0.597360    0.444530    0.066316     0.004307
NI141   NI        0.598524    0.476646    0.035742     0.004307
NI142   NI        0.627537    0.442402    0.037757     0.004307
NI143   NI        0.631891    0.475986    0.068618     0.004307
NI144   NI        0.664157    0.441809    0.069815     0.004307
CU145   CU        0.696231    0.477183    0.069251     0.006663
NI146   NI        0.203137    0.508653    0.068285     0.004307
NI147   NI        0.236838    0.508604    0.035391     0.004307
NI148   NI        0.233924    0.539903    0.067793     0.004307
NI149   NI        0.267539    0.506661    0.066428     0.004307
NI150   NI        0.265283    0.540636    0.034852     0.004307
NI151   NI        0.298456    0.509324    0.035335     0.004307
CU152   CU        0.297922    0.541461    0.065946     0.006663
NI153   NI        0.333266    0.509877    0.066047     0.004307
NI154   NI        0.329720    0.543118    0.034889     0.004307
NI155   NI        0.364800    0.509383    0.034136     0.004307
CU156   CU        0.364715    0.542236    0.065047     0.006663
NI157   NI        0.397656    0.508550    0.064132     0.004307
CU158   CU        0.400057    0.539256    0.034077     0.006663
CU159   CU        0.429327    0.507359    0.032898     0.006663
NI160   NI        0.432072    0.542113    0.066201     0.004307
CU161   CU        0.464515    0.509194    0.065303     0.006663
NI162   NI        0.465017    0.542208    0.034874     0.004307
NI163   NI        0.494876    0.509760    0.034578     0.004307
NI164   NI        0.496274    0.542632    0.067127     0.004307
NI165   NI        0.531109    0.509377    0.066581     0.004307
CU166   CU        0.528561    0.541147    0.035851     0.006663
NI167   NI        0.564165    0.509147    0.036136     0.004307
NI168   NI        0.562489    0.544285    0.063503     0.004307
NI169   NI        0.598029    0.511237    0.066489     0.004307
NI170   NI        0.595060    0.541679    0.035611     0.004307
NI171   NI        0.629096    0.508477    0.035752     0.004307
NI172   NI        0.630339    0.539582    0.065242     0.004307
NI173   NI        0.664032    0.508777    0.068135     0.004307
NI174   NI        0.204700    0.573544    0.068772     0.004307
NI175   NI        0.234778    0.605646    0.071186     0.004307
NI176   NI        0.267935    0.572783    0.068524     0.004307
NI177   NI        0.298924    0.574445    0.035803     0.004307
NI178   NI        0.299769    0.605671    0.068940     0.004307
CU179   CU        0.332616    0.575300    0.067066     0.006663
NI180   NI        0.332180    0.606508    0.037304     0.004307
NI181   NI        0.367056    0.574310    0.036856     0.004307
NI182   NI        0.363477    0.607397    0.068857     0.004307
CU183   CU        0.397973    0.574302    0.066078     0.006663
NI184   NI        0.397444    0.607193    0.032675     0.004307
CU185   CU        0.431180    0.574344    0.035831     0.006663
NI186   NI        0.430828    0.607168    0.068782     0.004307
NI187   NI        0.463249    0.571772    0.066876     0.004307
NI188   NI        0.463605    0.603436    0.037705     0.004307
NI189   NI        0.496392    0.571900    0.035459     0.004307
NI190   NI        0.499159    0.608531    0.063594     0.004307
NI191   NI        0.530811    0.576369    0.066744     0.004307
CU192   CU        0.533716    0.608163    0.035093     0.006663
NI193   NI        0.565687    0.577267    0.035608     0.004307
CU194   CU        0.563501    0.607660    0.067195     0.006663
NI195   NI        0.595324    0.575974    0.066312     0.004307
NI196   NI        0.629625    0.606637    0.067559     0.004307
NI197   NI        0.661781    0.571442    0.067403     0.004307
NI198   NI        0.267862    0.637941    0.068790     0.004307
NI199   NI        0.300726    0.672471    0.070458     0.004307
NI200   NI        0.329878    0.638686    0.067405     0.004307
NI201   NI        0.366313    0.640658    0.034258     0.004307
NI202   NI        0.365647    0.674721    0.068329     0.004307
NI203   NI        0.398041    0.640370    0.066080     0.004307
CU204   CU        0.430606    0.637845    0.035716     0.006663
NI205   NI        0.433373    0.670553    0.067480     0.004307
CU206   CU        0.464473    0.638580    0.066307     0.006663
NI207   NI        0.495354    0.641921    0.034123     0.004307
CU208   CU        0.497224    0.670200    0.067768     0.006663
NI209   NI        0.529419    0.640198    0.066896     0.004307
NI210   NI        0.566274    0.670120    0.065634     0.004307
CU211   CU        0.596194    0.638128    0.066611     0.006663
NI212   NI        0.397585    0.704224    0.068862     0.004307
NI213   NI        0.462799    0.702403    0.068992     0.004307
CU214   CU        0.301671    0.150775    0.137237     0.006663
CU215   CU        0.334048    0.120136    0.136776     0.006663
NI216   NI        0.333400    0.150748    0.103002     0.004307
NI217   NI        0.363698    0.150917    0.134543     0.004307
NI218   NI        0.396102    0.120519    0.136412     0.004307
NI219   NI        0.395973    0.152080    0.103543     0.004307
CU220   CU        0.429836    0.150029    0.133483     0.006663
NI221   NI        0.501105    0.087549    0.136592     0.004307
CU222   CU        0.465816    0.150294    0.098863     0.006663
NI223   NI        0.500157    0.151349    0.133798     0.004307
NI224   NI        0.533545    0.121869    0.132072     0.004307
NI225   NI        0.530695    0.151919    0.101765     0.004307
CU226   CU        0.565082    0.150690    0.134975     0.006663
NI227   NI        0.235767    0.212822    0.135173     0.004307
NI228   NI        0.267816    0.181119    0.136375     0.004307
NI229   NI        0.267154    0.213501    0.102897     0.004307
NI230   NI        0.300643    0.181998    0.103063     0.004307
NI231   NI        0.298870    0.213115    0.135611     0.004307
NI232   NI        0.331554    0.181155    0.134699     0.004307
NI233   NI        0.331139    0.213217    0.101736     0.004307
CU234   CU        0.365129    0.183293    0.100291     0.006663
NI235   NI        0.365771    0.212569    0.133124     0.004307
NI236   NI        0.397904    0.181546    0.136133     0.004307
NI237   NI        0.398365    0.210850    0.101144     0.004307
NI238   NI        0.430305    0.178712    0.099924     0.004307
CU239   CU        0.431251    0.212613    0.132004     0.006663
NI240   NI        0.464507    0.179577    0.131345     0.004307
NI241   NI        0.463578    0.210522    0.099787     0.004307
NI242   NI        0.497586    0.180153    0.098420     0.004307
CU243   CU        0.496123    0.213598    0.130863     0.006663
NI244   NI        0.532496    0.182128    0.133132     0.004307
NI245   NI        0.531163    0.211463    0.101557     0.004307
NI246   NI        0.564257    0.182240    0.101568     0.004307
NI247   NI        0.561316    0.213662    0.130861     0.004307
CU248   CU        0.594166    0.182312    0.135021     0.006663
NI249   NI        0.595476    0.215066    0.100720     0.004307
CU250   CU        0.623272    0.213398    0.134773     0.006663
NI251   NI        0.169965    0.277495    0.135668     0.004307
NI252   NI        0.202787    0.245272    0.136210     0.004307
NI253   NI        0.218398    0.278206    0.117371     0.004307
NI254   NI        0.235098    0.242532    0.102697     0.004307
NI255   NI        0.245125    0.281314    0.154217     0.004307
NI256   NI        0.267581    0.247235    0.135495     0.004307
NI257   NI        0.267076    0.278724    0.099718     0.004307
NI258   NI        0.299216    0.246047    0.100352     0.004307
CU259   CU        0.299914    0.278308    0.131313     0.006663
CU260   CU        0.331341    0.245790    0.130479     0.006663
CU261   CU        0.332427    0.276223    0.100547     0.006663
NI262   NI        0.365312    0.244808    0.100594     0.004307
NI263   NI        0.367816    0.277047    0.128425     0.004307
CU264   CU        0.398909    0.243453    0.132026     0.006663
NI265   NI        0.397580    0.277021    0.097202     0.004307
NI266   NI        0.430351    0.242200    0.098981     0.004307
CU267   CU        0.429545    0.274328    0.129163     0.006663
CU268   CU        0.464362    0.243577    0.130528     0.006663
CU269   CU        0.465199    0.275928    0.098077     0.006663
NI270   NI        0.498322    0.245144    0.098610     0.004307
NI271   NI        0.498941    0.277283    0.128978     0.004307
CU272   CU        0.528971    0.245225    0.130215     0.006663
CU273   CU        0.531692    0.276584    0.097785     0.006663
NI274   NI        0.560584    0.245060    0.098363     0.004307
NI275   NI        0.561758    0.278165    0.128216     0.004307
NI276   NI        0.595363    0.245004    0.135138     0.004307
CU277   CU        0.595235    0.277969    0.097165     0.006663
NI278   NI        0.624003    0.245380    0.100342     0.004307
NI279   NI        0.627934    0.277041    0.130800     0.004307
NI280   NI        0.657982    0.246990    0.131992     0.004307
NI281   NI        0.658438    0.280022    0.102003     0.004307
NI282   NI        0.690938    0.278522    0.133139     0.004307
NI283   NI        0.108341    0.342585    0.136729     0.004307
NI284   NI        0.138794    0.311983    0.132556     0.004307
NI285   NI        0.136495    0.346549    0.102475     0.004307
NI286   NI        0.170931    0.310100    0.102884     0.004307
NI287   NI        0.169315    0.342270    0.132140     0.004307
NI288   NI        0.209104    0.335348    0.147657     0.004307
NI289   NI        0.202064    0.342123    0.101154     0.004307
NI290   NI        0.233226    0.310999    0.097986     0.004307
NI291   NI        0.245400    0.351260    0.143418     0.004307
NI292   NI        0.264688    0.309978    0.128767     0.004307
CU293   CU        0.266507    0.340982    0.096225     0.006663
NI294   NI        0.298987    0.310892    0.099736     0.004307
NI295   NI        0.302358    0.350130    0.149897     0.004307
NI296   NI        0.335051    0.308510    0.130178     0.004307
CU297   CU        0.333191    0.341283    0.096308     0.006663
NI298   NI        0.364335    0.307353    0.095304     0.004307
NI299   NI        0.370636    0.351559    0.148690     0.004307
NI300   NI        0.400727    0.308401    0.128448     0.004307
CU301   CU        0.396020    0.340409    0.093843     0.006663
CU302   CU        0.429211    0.307961    0.093927     0.006663
CU303   CU        0.434124    0.342511    0.117661     0.006663
NI304   NI        0.463048    0.310423    0.122681     0.004307
CU305   CU        0.467439    0.345093    0.093303     0.006663
NI306   NI        0.497435    0.310527    0.096056     0.004307
NI307   NI        0.499611    0.345864    0.147588     0.004307
NI308   NI        0.528026    0.307843    0.127612     0.004307
NI309   NI        0.532474    0.342154    0.094757     0.004307
NI310   NI        0.564092    0.309369    0.096731     0.004307
NI311   NI        0.565342    0.347851    0.145801     0.004307
NI312   NI        0.596893    0.309505    0.130169     0.004307
NI313   NI        0.595582    0.342793    0.098035     0.004307
NI314   NI        0.626586    0.311157    0.098572     0.004307
NI315   NI        0.629339    0.341355    0.129339     0.004307
CU316   CU        0.660198    0.310643    0.131086     0.006663
NI317   NI        0.660532    0.344444    0.100981     0.004307
NI318   NI        0.689257    0.311380    0.100106     0.004307
NI319   NI        0.690967    0.342943    0.133836     0.004307
NI320   NI        0.721971    0.311408    0.135606     0.004307
NI321   NI        0.720736    0.342658    0.102682     0.004307
NI322   NI        0.752717    0.342679    0.135816     0.004307
NI323   NI        0.109465    0.409369    0.134564     0.004307
NI324   NI        0.138880    0.378218    0.132338     0.004307
NI325   NI        0.139567    0.408478    0.099998     0.004307
NI326   NI        0.172289    0.377666    0.098767     0.004307
CU327   CU        0.169741    0.411217    0.130189     0.006663
NI328   NI        0.210103    0.376205    0.156017     0.004307
CU329   CU        0.201207    0.410625    0.098006     0.006663
NI330   NI        0.257534    0.378315    0.110133     0.004307
NI331   NI        0.228996    0.408820    0.132122     0.004307
NI332   NI        0.273044    0.381340    0.149898     0.004307
NI333   NI        0.271556    0.413700    0.095019     0.004307
NI334   NI        0.297905    0.374611    0.093746     0.004307
NI335   NI        0.303216    0.412880    0.147335     0.004307
NI336   NI        0.335978    0.381595    0.148346     0.004307
NI337   NI        0.331586    0.409972    0.092307     0.004307
NI338   NI        0.364773    0.375031    0.093231     0.004307
NI339   NI        0.367675    0.411237    0.146997     0.004307
NI340   NI        0.402943    0.383368    0.148931     0.004307
NI341   NI        0.397853    0.408904    0.092644     0.004307
NI342   NI        0.433384    0.377560    0.093397     0.004307
NI343   NI        0.433542    0.410283    0.129676     0.004307
NI344   NI        0.464562    0.374116    0.124101     0.004307
CU345   CU        0.462851    0.411048    0.092769     0.006663
NI346   NI        0.496608    0.377278    0.095650     0.004307
NI347   NI        0.491828    0.410288    0.122803     0.004307
CU348   CU        0.529935    0.378098    0.146923     0.006663
NI349   NI        0.527998    0.412448    0.094552     0.004307
NI350   NI        0.562129    0.376051    0.093533     0.004307
CU351   CU        0.558869    0.408962    0.144924     0.006663
NI352   NI        0.589661    0.381290    0.146666     0.004307
NI353   NI        0.596458    0.414141    0.098032     0.004307
NI354   NI        0.629600    0.374375    0.098782     0.004307
NI355   NI        0.618900    0.411593    0.142992     0.004307
CU356   CU        0.661891    0.374721    0.131916     0.006663
NI357   NI        0.661652    0.407810    0.100292     0.004307
NI358   NI        0.692110    0.375700    0.101480     0.004307
CU359   CU        0.692722    0.410383    0.132189     0.006663
NI360   NI        0.726604    0.377049    0.130565     0.004307
NI361   NI        0.724620    0.409921    0.102687     0.004307
CU362   CU        0.757062    0.410432    0.133759     0.006663
NI363   NI        0.106812    0.478430    0.132191     0.004307
NI364   NI        0.138434    0.443410    0.136042     0.004307
NI365   NI        0.141112    0.474593    0.100124     0.004307
CU366   CU        0.168451    0.442702    0.097075     0.006663
NI367   NI        0.169267    0.475506    0.130611     0.004307
NI368   NI        0.198779    0.442553    0.130496     0.004307
NI369   NI        0.201321    0.476367    0.098610     0.004307
CU370   CU        0.234433    0.442265    0.100078     0.006663
NI371   NI        0.230400    0.475043    0.129454     0.004307
NI372   NI        0.271297    0.446022    0.150285     0.004307
CU373   CU        0.265005    0.473518    0.097361     0.006663
CU374   CU        0.301383    0.445643    0.092574     0.006663
NI375   NI        0.303287    0.475466    0.145362     0.004307
NI376   NI        0.334757    0.442888    0.146893     0.004307
CU377   CU        0.334054    0.475796    0.095456     0.006663
NI378   NI        0.367322    0.442663    0.090093     0.004307
CU379   CU        0.370285    0.471410    0.145127     0.006663
NI380   NI        0.398498    0.440996    0.123618     0.004307
NI381   NI        0.398475    0.474641    0.091747     0.004307
CU382   CU        0.430872    0.441253    0.094875     0.006663
CU383   CU        0.431426    0.474115    0.124523     0.006663
NI384   NI        0.464330    0.444653    0.126413     0.004307
NI385   NI        0.466472    0.478408    0.096736     0.004307
CU386   CU        0.497844    0.445985    0.095669     0.006663
NI387   NI        0.497367    0.475769    0.130188     0.004307
NI388   NI        0.530908    0.445022    0.127267     0.004307
NI389   NI        0.531691    0.477310    0.096090     0.004307
NI390   NI        0.564101    0.445706    0.097374     0.004307
NI391   NI        0.564174    0.477772    0.128141     0.004307
NI392   NI        0.586550    0.440385    0.141944     0.004307
NI393   NI        0.600104    0.476975    0.097224     0.004307
NI394   NI        0.630540    0.442410    0.098641     0.004307
NI395   NI        0.632948    0.479518    0.128676     0.004307
CU396   CU        0.663642    0.445240    0.131769     0.006663
NI397   NI        0.663549    0.474624    0.097922     0.004307
NI398   NI        0.694209    0.443271    0.100806     0.004307
NI399   NI        0.692860    0.476613    0.135403     0.004307
NI400   NI        0.727517    0.441604    0.135061     0.004307
CU401   CU        0.723617    0.475709    0.104126     0.006663
NI402   NI        0.756626    0.474043    0.133884     0.004307
NI403   NI        0.111023    0.540850    0.134726     0.004307
NI404   NI        0.139182    0.509624    0.134341     0.004307
NI405   NI        0.138864    0.540920    0.100342     0.004307
CU406   CU        0.168714    0.507491    0.099733     0.006663
NI407   NI        0.168050    0.540618    0.131356     0.004307
NI408   NI        0.200755    0.507085    0.130508     0.004307
CU409   CU        0.201300    0.539865    0.098853     0.006663
NI410   NI        0.235698    0.507663    0.097538     0.004307
CU411   CU        0.231869    0.544307    0.132661     0.006663
NI412   NI        0.273099    0.505304    0.148589     0.004307
NI413   NI        0.266131    0.541551    0.099451     0.004307
NI414   NI        0.300010    0.508325    0.096878     0.004307
CU415   CU        0.304087    0.541142    0.126023     0.006663
NI416   NI        0.331214    0.509954    0.123266     0.004307
CU417   CU        0.333424    0.542078    0.095263     0.006663
NI418   NI        0.365418    0.508357    0.095420     0.004307
NI419   NI        0.363146    0.542970    0.126930     0.004307
NI420   NI        0.404570    0.506106    0.138766     0.004307
NI421   NI        0.396782    0.541278    0.097896     0.004307
NI422   NI        0.432889    0.508984    0.095427     0.004307
NI423   NI        0.433048    0.541596    0.130152     0.004307
NI424   NI        0.465223    0.509873    0.128802     0.004307
NI425   NI        0.462530    0.541312    0.097170     0.004307
NI426   NI        0.499425    0.511310    0.096350     0.004307
NI427   NI        0.500267    0.540926    0.126943     0.004307
CU428   CU        0.530892    0.511364    0.126423     0.006663
CU429   CU        0.532563    0.544058    0.097231     0.006663
NI430   NI        0.562757    0.509378    0.095181     0.004307
NI431   NI        0.565461    0.542478    0.130035     0.004307
NI432   NI        0.597329    0.507744    0.128411     0.004307
NI433   NI        0.598323    0.543123    0.098420     0.004307
CU434   CU        0.631975    0.508753    0.096796     0.006663
CU435   CU        0.630607    0.542600    0.130178     0.006663
CU436   CU        0.660599    0.511269    0.131298     0.006663
NI437   NI        0.662377    0.542329    0.098586     0.004307
NI438   NI        0.694290    0.508228    0.101311     0.004307
NI439   NI        0.693270    0.540026    0.132022     0.004307
CU440   CU        0.725598    0.508141    0.131936     0.006663
NI441   NI        0.724894    0.540838    0.103936     0.004307
NI442   NI        0.755122    0.541001    0.136928     0.004307
NI443   NI        0.140793    0.573347    0.132849     0.004307
NI444   NI        0.172294    0.572925    0.099371     0.004307
NI445   NI        0.171645    0.607347    0.132616     0.004307
NI446   NI        0.200668    0.575612    0.132597     0.004307
CU447   CU        0.201161    0.605369    0.101153     0.006663
CU448   CU        0.232695    0.573546    0.100092     0.006663
CU449   CU        0.232960    0.605335    0.131782     0.006663
NI450   NI        0.265365    0.574557    0.131054     0.004307
CU451   CU        0.266660    0.604073    0.100605     0.006663
NI452   NI        0.297962    0.573516    0.099585     0.004307
CU453   CU        0.297534    0.605174    0.131244     0.006663
NI454   NI        0.332066    0.572823    0.126042     0.004307
NI455   NI        0.333005    0.607514    0.100049     0.004307
NI456   NI        0.363691    0.574971    0.097729     0.004307
NI457   NI        0.365238    0.609238    0.129897     0.004307
CU458   CU        0.396984    0.576139    0.130508     0.006663
CU459   CU        0.397960    0.609619    0.098479     0.006663
NI460   NI        0.430334    0.572379    0.097995     0.004307
NI461   NI        0.429825    0.607977    0.131047     0.004307
CU462   CU        0.465074    0.573448    0.128239     0.006663
NI463   NI        0.463749    0.610169    0.100985     0.004307
NI464   NI        0.498179    0.575628    0.098163     0.004307
NI465   NI        0.496095    0.607838    0.130204     0.004307
NI466   NI        0.530160    0.576340    0.128582     0.004307
CU467   CU        0.531392    0.609596    0.098703     0.006663
NI468   NI        0.565474    0.574132    0.097600     0.004307
NI469   NI        0.565587    0.609905    0.129880     0.004307
NI470   NI        0.596017    0.574291    0.133615     0.004307
NI471   NI        0.596482    0.606089    0.099015     0.004307
NI472   NI        0.627814    0.574295    0.100293     0.004307
NI473   NI        0.626930    0.606543    0.132263     0.004307
CU474   CU        0.661539    0.574066    0.131799     0.006663
NI475   NI        0.662328    0.604404    0.100588     0.004307
NI476   NI        0.691171    0.571010    0.100468     0.004307
CU477   CU        0.692296    0.603967    0.134488     0.006663
CU478   CU        0.722302    0.569857    0.136167     0.006663
NI479   NI        0.202892    0.635251    0.134992     0.004307
CU480   CU        0.235951    0.636569    0.100729     0.006663
NI481   NI        0.236856    0.664796    0.133876     0.004307
NI482   NI        0.267652    0.636321    0.131819     0.004307
NI483   NI        0.266410    0.669149    0.100444     0.004307
CU484   CU        0.300505    0.638090    0.100027     0.006663
NI485   NI        0.302415    0.669096    0.131700     0.004307
NI486   NI        0.335492    0.641772    0.131078     0.004307
NI487   NI        0.331978    0.672287    0.099664     0.004307
NI488   NI        0.365422    0.642373    0.097533     0.004307
NI489   NI        0.366491    0.672425    0.132037     0.004307
CU490   CU        0.399027    0.640303    0.132900     0.006663
CU491   CU        0.400847    0.671824    0.096926     0.006663
CU492   CU        0.432582    0.640507    0.097831     0.006663
NI493   NI        0.433033    0.673111    0.132760     0.004307
NI494   NI        0.465116    0.642611    0.130885     0.004307
NI495   NI        0.466684    0.671086    0.099215     0.004307
NI496   NI        0.498285    0.641029    0.098592     0.004307
CU497   CU        0.495097    0.673273    0.132143     0.006663
NI498   NI        0.531255    0.642066    0.130751     0.004307
NI499   NI        0.530267    0.672930    0.100017     0.004307
NI500   NI        0.564321    0.641125    0.097462     0.004307
CU501   CU        0.564340    0.672183    0.134539     0.006663
NI502   NI        0.594996    0.640306    0.134511     0.004307
NI503   NI        0.596991    0.671746    0.101411     0.004307
CU504   CU        0.625495    0.636435    0.102184     0.006663
NI505   NI        0.627229    0.670278    0.136506     0.004307
NI506   NI        0.660589    0.637385    0.135472     0.004307
NI507   NI        0.265787    0.701425    0.135107     0.004307
NI508   NI        0.297914    0.700725    0.102580     0.004307
NI509   NI        0.297354    0.733810    0.136247     0.004307
CU510   CU        0.332884    0.705512    0.132107     0.006663
CU511   CU        0.275113    0.741461    0.099476     0.006663
NI512   NI        0.365469    0.703888    0.101531     0.004307
NI513   NI        0.364466    0.735666    0.134093     0.004307
CU514   CU        0.399240    0.704032    0.132098     0.006663
NI515   NI        0.398584    0.736303    0.102182     0.004307
NI516   NI        0.430969    0.703435    0.100057     0.004307
CU517   CU        0.432709    0.737366    0.133271     0.006663
CU518   CU        0.465550    0.706190    0.132738     0.006663
NI519   NI        0.464612    0.734591    0.100083     0.004307
NI520   NI        0.498554    0.704463    0.100300     0.004307
NI521   NI        0.497733    0.734211    0.131836     0.004307
NI522   NI        0.530347    0.704049    0.133098     0.004307
NI523   NI        0.530374    0.734264    0.102968     0.004307
NI524   NI        0.562117    0.701507    0.102585     0.004307
NI525   NI        0.562403    0.731686    0.134630     0.004307
NI526   NI        0.594022    0.702613    0.135410     0.004307
NI527   NI        0.331489    0.767554    0.137315     0.004307
NI528   NI        0.398700    0.766697    0.132609     0.004307
NI529   NI        0.466999    0.765661    0.132723     0.004307
NI530   NI        0.532978    0.765757    0.132904     0.004307
NI531   NI        0.301626    0.089012    0.202735     0.004307
NI532   NI        0.366153    0.089614    0.203074     0.004307
NI533   NI        0.397437    0.089956    0.167189     0.004307
NI534   NI        0.433280    0.088419    0.199498     0.004307
NI535   NI        0.465567    0.088126    0.163508     0.004307
NI536   NI        0.496320    0.088822    0.200768     0.004307
NI537   NI        0.564515    0.088667    0.202336     0.004307
NI538   NI        0.237600    0.149006    0.204597     0.004307
NI539   NI        0.270681    0.121679    0.204103     0.004307
NI540   NI        0.268859    0.151382    0.168609     0.004307
NI541   NI        0.301271    0.120942    0.168855     0.004307
CU542   CU        0.300883    0.152021    0.200702     0.006663
NI543   NI        0.333822    0.118753    0.202484     0.004307
CU544   CU        0.331569    0.151163    0.168105     0.006663
NI545   NI        0.364315    0.119466    0.168194     0.004307
NI546   NI        0.366548    0.148456    0.200485     0.004307
NI547   NI        0.400155    0.118093    0.202854     0.004307
NI548   NI        0.397534    0.149618    0.166925     0.004307
NI549   NI        0.432609    0.117814    0.165217     0.004307
NI550   NI        0.430294    0.149881    0.201918     0.004307
NI551   NI        0.466282    0.118008    0.199638     0.004307
NI552   NI        0.464250    0.149383    0.164921     0.004307
NI553   NI        0.501012    0.119092    0.166716     0.004307
NI554   NI        0.499504    0.148674    0.199278     0.004307
NI555   NI        0.529437    0.117436    0.201485     0.004307
CU556   CU        0.532693    0.150172    0.166012     0.006663
NI557   NI        0.563408    0.118889    0.172905     0.004307
NI558   NI        0.562186    0.148607    0.201686     0.004307
NI559   NI        0.596274    0.118970    0.203083     0.004307
NI560   NI        0.595737    0.150822    0.167982     0.004307
CU561   CU        0.626561    0.151313    0.200557     0.006663
NI562   NI        0.171330    0.217125    0.202106     0.004307
NI563   NI        0.205810    0.182640    0.203154     0.004307
CU564   CU        0.203528    0.215602    0.170300     0.006663
NI565   NI        0.234689    0.182132    0.169729     0.004307
NI566   NI        0.234170    0.215648    0.202150     0.004307
NI567   NI        0.265884    0.179602    0.201842     0.004307
CU568   CU        0.269012    0.214682    0.168783     0.006663
CU569   CU        0.297786    0.183214    0.167214     0.006663
NI570   NI        0.297205    0.211790    0.202434     0.004307
NI571   NI        0.330531    0.181676    0.199624     0.004307
NI572   NI        0.328598    0.211089    0.166077     0.004307
NI573   NI        0.364929    0.182714    0.165342     0.004307
NI574   NI        0.365242    0.210582    0.199321     0.004307
NI575   NI        0.395618    0.180172    0.199468     0.004307
NI576   NI        0.398189    0.212455    0.164289     0.004307
CU577   CU        0.431153    0.179588    0.166163     0.006663
CU578   CU        0.432744    0.210032    0.196606     0.006663
NI579   NI        0.463887    0.180424    0.198903     0.004307
NI580   NI        0.466549    0.211844    0.164493     0.004307
NI581   NI        0.497254    0.180479    0.165715     0.004307
NI582   NI        0.498548    0.206501    0.200681     0.004307
NI583   NI        0.530706    0.179493    0.199835     0.004307
NI584   NI        0.530995    0.210908    0.167066     0.004307
CU585   CU        0.564218    0.180244    0.165269     0.006663
CU586   CU        0.564859    0.207033    0.200558     0.006663
NI587   NI        0.595160    0.179321    0.200878     0.004307
NI588   NI        0.594498    0.211930    0.168351     0.004307
CU589   CU        0.626466    0.184266    0.169690     0.006663
NI590   NI        0.628543    0.212218    0.200724     0.004307
NI591   NI        0.659344    0.178757    0.198979     0.004307
NI592   NI        0.658821    0.213478    0.166618     0.004307
NI593   NI        0.687876    0.212543    0.198697     0.004307
NI594   NI        0.109594    0.278191    0.201648     0.004307
CU595   CU        0.140288    0.247111    0.205490     0.006663
NI596   NI        0.141635    0.279006    0.172214     0.004307
NI597   NI        0.171291    0.248500    0.170491     0.004307
NI598   NI        0.170159    0.277211    0.204004     0.004307
NI599   NI        0.201081    0.246605    0.204205     0.004307
CU600   CU        0.203479    0.276168    0.165721     0.006663
NI601   NI        0.233452    0.243774    0.167168     0.004307
CU602   CU        0.232243    0.275951    0.198476     0.006663
NI603   NI        0.265060    0.245433    0.199053     0.004307
NI604   NI        0.273337    0.284190    0.185625     0.004307
NI605   NI        0.303636    0.246075    0.163951     0.004307
NI606   NI        0.306045    0.286998    0.214238     0.004307
NI607   NI        0.334165    0.240334    0.196057     0.004307
CU608   CU        0.336631    0.276460    0.164266     0.006663
CU609   CU        0.365608    0.243786    0.163477     0.006663
CU610   CU        0.367068    0.286027    0.216683     0.006663
NI611   NI        0.401819    0.256952    0.213056     0.004307
CU612   CU        0.398205    0.275606    0.159949     0.006663
NI613   NI        0.433067    0.245229    0.161583     0.004307
NI614   NI        0.434455    0.286878    0.213408     0.004307
NI615   NI        0.465844    0.251855    0.217785     0.004307
CU616   CU        0.462656    0.276886    0.157954     0.006663
NI617   NI        0.496590    0.247842    0.159497     0.004307
CU618   CU        0.496286    0.287642    0.213207     0.006663
CU619   CU        0.527311    0.254490    0.210598     0.006663
NI620   NI        0.529348    0.276899    0.159705     0.004307
NI621   NI        0.558401    0.243802    0.180795     0.004307
NI622   NI        0.561823    0.284020    0.211046     0.004307
NI623   NI        0.589459    0.251060    0.212598     0.004307
CU624   CU        0.597201    0.280714    0.162428     0.006663
NI625   NI        0.628497    0.241597    0.166473     0.004307
CU626   CU        0.622519    0.282390    0.213145     0.006663
NI627   NI        0.658785    0.245162    0.196739     0.004307
NI628   NI        0.658774    0.277945    0.164908     0.004307
NI629   NI        0.688570    0.243643    0.165520     0.004307
NI630   NI        0.688549    0.275811    0.199178     0.004307
NI631   NI        0.725018    0.251759    0.208139     0.004307
NI632   NI        0.722218    0.274269    0.166019     0.004307
NI633   NI        0.755047    0.280092    0.200819     0.004307
NI634   NI        0.080075    0.310569    0.199313     0.004307
NI635   NI        0.111234    0.312605    0.169534     0.004307
CU636   CU        0.109521    0.344048    0.199121     0.006663
NI637   NI        0.137533    0.310682    0.202400     0.004307
NI638   NI        0.139644    0.343680    0.165258     0.004307
NI639   NI        0.168947    0.310587    0.167889     0.004307
NI640   NI        0.168644    0.342772    0.202090     0.004307
CU641   CU        0.199054    0.308212    0.200103     0.006663
NI642   NI        0.209733    0.346738    0.190342     0.004307
NI643   NI        0.239691    0.315368    0.181516     0.004307
CU644   CU        0.243760    0.348263    0.213552     0.006663
NI645   NI        0.273331    0.316305    0.213050     0.004307
NI646   NI        0.272179    0.347484    0.180113     0.004307
NI647   NI        0.302969    0.315009    0.179731     0.004307
CU648   CU        0.305297    0.346505    0.210007     0.006663
NI649   NI        0.335875    0.317842    0.214361     0.004307
CU650   CU        0.338613    0.348044    0.178664     0.006663
NI651   NI        0.366199    0.306866    0.159763     0.004307
CU652   CU        0.366779    0.348722    0.212594     0.006663
CU653   CU        0.402288    0.316364    0.212120     0.006663
CU654   CU        0.402651    0.352690    0.181494     0.006663
NI655   NI        0.429712    0.304916    0.164329     0.004307
NI656   NI        0.434101    0.346478    0.211840     0.004307
NI657   NI        0.465290    0.316566    0.213393     0.004307
CU658   CU        0.467818    0.346010    0.179159     0.006663
NI659   NI        0.496553    0.316140    0.180541     0.004307
CU660   CU        0.497486    0.347286    0.210156     0.006663
CU661   CU        0.528221    0.315411    0.210051     0.006663
NI662   NI        0.528464    0.346411    0.177997     0.004307
CU663   CU        0.561742    0.314542    0.178171     0.006663
NI664   NI        0.560099    0.346932    0.210039     0.004307
NI665   NI        0.591451    0.316423    0.212146     0.004307
NI666   NI        0.594691    0.347646    0.178264     0.004307
NI667   NI        0.628761    0.312088    0.162478     0.004307
NI668   NI        0.620447    0.350644    0.214491     0.004307
NI669   NI        0.656824    0.308218    0.195813     0.004307
CU670   CU        0.659399    0.341237    0.162007     0.006663
NI671   NI        0.688416    0.310590    0.163102     0.004307
NI672   NI        0.668275    0.348206    0.207729     0.004307
NI673   NI        0.712190    0.341050    0.207171     0.004307
NI674   NI        0.722960    0.346567    0.164775     0.004307
NI675   NI        0.751814    0.310929    0.167127     0.004307
NI676   NI        0.754050    0.344441    0.198459     0.004307
NI677   NI        0.782267    0.312711    0.200926     0.004307
NI678   NI        0.080017    0.375143    0.198997     0.004307
NI679   NI        0.079942    0.409410    0.167989     0.004307
NI680   NI        0.110807    0.378558    0.167307     0.004307
CU681   CU        0.108021    0.409247    0.199944     0.006663
NI682   NI        0.138128    0.374790    0.200614     0.004307
CU683   CU        0.140403    0.410159    0.166214     0.006663
NI684   NI        0.166333    0.374890    0.166300     0.004307
NI685   NI        0.166285    0.408078    0.202046     0.004307
NI686   NI        0.212727    0.378127    0.216468     0.004307
CU687   CU        0.206455    0.408871    0.187499     0.006663
NI688   NI        0.242801    0.381839    0.181165     0.004307
CU689   CU        0.242451    0.412628    0.211751     0.006663
CU690   CU        0.275095    0.380459    0.212403     0.006663
NI691   NI        0.272744    0.413828    0.177817     0.004307
NI692   NI        0.305957    0.380960    0.179746     0.004307
NI693   NI        0.303158    0.413141    0.210339     0.004307
NI694   NI        0.336034    0.379536    0.211656     0.004307
CU695   CU        0.335025    0.410854    0.178813     0.006663
NI696   NI        0.368836    0.380839    0.179801     0.004307
CU697   CU        0.368881    0.412949    0.209690     0.006663
CU698   CU        0.399347    0.380825    0.212850     0.006663
CU699   CU        0.400898    0.412881    0.180008     0.006663
NI700   NI        0.433100    0.379824    0.182002     0.004307
CU701   CU        0.433401    0.410892    0.211744     0.006663
NI702   NI        0.466404    0.378361    0.211247     0.004307
NI703   NI        0.464739    0.410527    0.180720     0.004307
CU704   CU        0.498340    0.379160    0.176863     0.006663
NI705   NI        0.495603    0.409956    0.210143     0.004307
CU706   CU        0.530286    0.378448    0.210663     0.006663
NI707   NI        0.525846    0.408153    0.179529     0.004307
NI708   NI        0.560070    0.377875    0.176526     0.004307
CU709   CU        0.558838    0.408249    0.210249     0.006663
CU710   CU        0.589182    0.378261    0.211322     0.006663
NI711   NI        0.588124    0.411870    0.177656     0.004307
NI712   NI        0.619228    0.381851    0.178311     0.004307
CU713   CU        0.618744    0.411950    0.211765     0.006663
NI714   NI        0.648433    0.384491    0.209208     0.004307
NI715   NI        0.648940    0.414056    0.175241     0.004307
NI716   NI        0.696349    0.378255    0.163342     0.004307
NI717   NI        0.680723    0.410478    0.211639     0.004307
NI718   NI        0.728738    0.380679    0.196295     0.004307
NI719   NI        0.726820    0.411504    0.165276     0.004307
NI720   NI        0.757324    0.376476    0.164215     0.004307
NI721   NI        0.758242    0.412811    0.201571     0.004307
CU722   CU        0.783623    0.376128    0.199706     0.006663
NI723   NI        0.784668    0.410339    0.165740     0.004307
NI724   NI        0.075715    0.442341    0.199992     0.004307
NI725   NI        0.078121    0.475698    0.165890     0.004307
CU726   CU        0.106946    0.443032    0.166483     0.006663
NI727   NI        0.106144    0.477131    0.201087     0.004307
NI728   NI        0.136995    0.445083    0.198596     0.004307
NI729   NI        0.138647    0.476056    0.165540     0.004307
CU730   CU        0.168830    0.444672    0.167155     0.006663
NI731   NI        0.166563    0.477340    0.199995     0.004307
CU732   CU        0.212202    0.443609    0.214263     0.006663
NI733   NI        0.199249    0.476872    0.161779     0.004307
NI734   NI        0.238089    0.443424    0.179174     0.004307
NI735   NI        0.242042    0.474679    0.212973     0.004307
NI736   NI        0.271763    0.443157    0.211355     0.004307
NI737   NI        0.270399    0.474039    0.181018     0.004307
CU738   CU        0.303301    0.445172    0.179567     0.006663
NI739   NI        0.305414    0.477869    0.211505     0.004307
CU740   CU        0.336649    0.443737    0.211466     0.006663
NI741   NI        0.338565    0.473423    0.178461     0.004307
NI742   NI        0.367698    0.442963    0.178337     0.004307
CU743   CU        0.368576    0.474837    0.209171     0.006663
CU744   CU        0.401765    0.443087    0.211677     0.006663
CU745   CU        0.399647    0.472468    0.179294     0.006663
NI746   NI        0.435020    0.440911    0.179365     0.004307
CU747   CU        0.431911    0.472760    0.211667     0.006663
CU748   CU        0.464691    0.442272    0.212389     0.006663
NI749   NI        0.464637    0.473634    0.160736     0.004307
CU750   CU        0.496415    0.441049    0.177378     0.006663
CU751   CU        0.495794    0.474144    0.211328     0.006663
NI752   NI        0.526570    0.440622    0.211198     0.004307
CU753   CU        0.530856    0.477788    0.160028     0.006663
CU754   CU        0.557261    0.441437    0.174991     0.006663
NI755   NI        0.558544    0.473935    0.212445     0.004307
NI756   NI        0.587114    0.440560    0.211981     0.004307
NI757   NI        0.588476    0.472117    0.175606     0.004307
NI758   NI        0.619675    0.442772    0.176697     0.004307
NI759   NI        0.616404    0.470438    0.212672     0.004307
NI760   NI        0.651157    0.441668    0.209195     0.004307
NI761   NI        0.662918    0.479051    0.163328     0.004307
CU762   CU        0.695886    0.444393    0.164448     0.006663
NI763   NI        0.696205    0.474552    0.195000     0.004307
NI764   NI        0.726385    0.444093    0.199162     0.004307
NI765   NI        0.727892    0.476186    0.165730     0.004307
NI766   NI        0.757693    0.442647    0.165474     0.004307
NI767   NI        0.755395    0.476361    0.200657     0.004307
NI768   NI        0.787421    0.444511    0.199314     0.004307
NI769   NI        0.786116    0.476125    0.169846     0.004307
CU770   CU        0.078710    0.509358    0.201474     0.006663
NI771   NI        0.106516    0.507208    0.167125     0.004307
NI772   NI        0.108944    0.542570    0.201343     0.004307
NI773   NI        0.136618    0.506887    0.201002     0.004307
NI774   NI        0.140209    0.541455    0.167302     0.004307
NI775   NI        0.168091    0.508971    0.167482     0.004307
NI776   NI        0.167962    0.541514    0.198144     0.004307
NI777   NI        0.198170    0.510860    0.199958     0.004307
CU778   CU        0.200807    0.542927    0.166083     0.006663
NI779   NI        0.233292    0.507049    0.159508     0.004307
NI780   NI        0.241455    0.538639    0.212658     0.004307
NI781   NI        0.273598    0.506843    0.210897     0.004307
NI782   NI        0.276077    0.537821    0.181991     0.004307
NI783   NI        0.303928    0.506204    0.178773     0.004307
NI784   NI        0.305854    0.537502    0.213454     0.004307
CU785   CU        0.335433    0.506153    0.212951     0.006663
NI786   NI        0.337429    0.537886    0.178566     0.004307
NI787   NI        0.367801    0.504941    0.178078     0.004307
CU788   CU        0.369266    0.534920    0.211747     0.006663
NI789   NI        0.400863    0.504666    0.211276     0.004307
NI790   NI        0.396625    0.542524    0.159612     0.004307
CU791   CU        0.430446    0.503385    0.180318     0.006663
NI792   NI        0.434723    0.535243    0.210092     0.004307
CU793   CU        0.462523    0.505278    0.209885     0.006663
NI794   NI        0.465798    0.542479    0.160042     0.004307
NI795   NI        0.498592    0.509374    0.158071     0.004307
CU796   CU        0.495026    0.535668    0.213520     0.006663
NI797   NI        0.524702    0.504296    0.215651     0.004307
CU798   CU        0.532602    0.543327    0.158978     0.006663
NI799   NI        0.564419    0.510269    0.161114     0.004307
NI800   NI        0.556281    0.538181    0.215172     0.004307
NI801   NI        0.601087    0.509259    0.194815     0.004307
NI802   NI        0.598053    0.540047    0.162234     0.004307
NI803   NI        0.628777    0.509528    0.161112     0.004307
NI804   NI        0.630221    0.543624    0.194528     0.004307
NI805   NI        0.644728    0.501175    0.203806     0.004307
CU806   CU        0.661908    0.540538    0.161983     0.006663
NI807   NI        0.695974    0.508946    0.166413     0.004307
NI808   NI        0.683863    0.511268    0.210640     0.004307
NI809   NI        0.725245    0.507036    0.201918     0.004307
NI810   NI        0.724732    0.538222    0.166265     0.004307
CU811   CU        0.756393    0.507896    0.168323     0.006663
CU812   CU        0.756406    0.538728    0.200679     0.006663
NI813   NI        0.786872    0.506594    0.201796     0.004307
NI814   NI        0.079001    0.572565    0.200302     0.004307
NI815   NI        0.111489    0.573499    0.164942     0.004307
NI816   NI        0.109408    0.604709    0.201946     0.004307
NI817   NI        0.138832    0.574181    0.201555     0.004307
CU818   CU        0.138999    0.604945    0.168489     0.006663
NI819   NI        0.170276    0.573197    0.164562     0.004307
NI820   NI        0.168094    0.607252    0.202345     0.004307
NI821   NI        0.198049    0.576209    0.197901     0.004307
CU822   CU        0.202000    0.605427    0.164507     0.006663
NI823   NI        0.232047    0.574541    0.164323     0.004307
NI824   NI        0.230047    0.605263    0.199624     0.004307
NI825   NI        0.275217    0.568307    0.214079     0.004307
CU826   CU        0.263135    0.605371    0.162586     0.006663
NI827   NI        0.305050    0.567564    0.180173     0.004307
CU828   CU        0.309734    0.597037    0.215889     0.006663
NI829   NI        0.336573    0.565258    0.213678     0.004307
NI830   NI        0.339449    0.595634    0.184818     0.004307
NI831   NI        0.364972    0.571735    0.158788     0.004307
NI832   NI        0.371030    0.597082    0.215978     0.004307
NI833   NI        0.400313    0.570984    0.194658     0.004307
CU834   CU        0.396514    0.608947    0.162488     0.006663
NI835   NI        0.432280    0.573548    0.159963     0.004307
NI836   NI        0.432776    0.599084    0.196817     0.004307
NI837   NI        0.464820    0.571264    0.190666     0.004307
NI838   NI        0.465619    0.603867    0.162115     0.004307
NI839   NI        0.498146    0.574674    0.160914     0.004307
NI840   NI        0.495649    0.605672    0.194312     0.004307
NI841   NI        0.535912    0.579697    0.209203     0.004307
NI842   NI        0.532404    0.605554    0.165601     0.004307
NI843   NI        0.563324    0.575440    0.159040     0.004307
NI844   NI        0.560549    0.613369    0.199210     0.004307
NI845   NI        0.580299    0.570932    0.218322     0.004307
NI846   NI        0.594115    0.609605    0.166448     0.004307
CU847   CU        0.631092    0.574416    0.163432     0.006663
NI848   NI        0.615079    0.585114    0.203349     0.004307
CU849   CU        0.659448    0.575499    0.196652     0.006663
NI850   NI        0.660829    0.605334    0.163850     0.004307
NI851   NI        0.690821    0.573347    0.164553     0.004307
NI852   NI        0.690950    0.604921    0.202658     0.004307
NI853   NI        0.697109    0.549794    0.202873     0.004307
NI854   NI        0.720366    0.602728    0.169416     0.004307
NI855   NI        0.754505    0.571755    0.168051     0.004307
NI856   NI        0.753137    0.606083    0.203824     0.004307
NI857   NI        0.781303    0.575551    0.203491     0.004307
CU858   CU        0.138784    0.638201    0.200845     0.006663
NI859   NI        0.170437    0.638929    0.167927     0.004307
NI860   NI        0.172470    0.670504    0.202218     0.004307
NI861   NI        0.201435    0.638200    0.201122     0.004307
NI862   NI        0.204441    0.668362    0.167583     0.004307
CU863   CU        0.232030    0.635821    0.167312     0.006663
NI864   NI        0.233666    0.670699    0.201394     0.004307
NI865   NI        0.271344    0.609941    0.206770     0.004307
NI866   NI        0.263926    0.669046    0.166711     0.004307
NI867   NI        0.301279    0.608592    0.175584     0.004307
NI868   NI        0.294217    0.673842    0.198361     0.004307
CU869   CU        0.339908    0.626488    0.217936     0.006663
NI870   NI        0.336259    0.673391    0.163621     0.004307
CU871   CU        0.365706    0.644052    0.164637     0.006663
CU872   CU        0.369090    0.676256    0.196667     0.006663
NI873   NI        0.397405    0.642297    0.195097     0.004307
NI874   NI        0.398347    0.673182    0.164020     0.004307
NI875   NI        0.431283    0.642358    0.164884     0.004307
NI876   NI        0.428990    0.674330    0.196437     0.004307
NI877   NI        0.462766    0.629001    0.216035     0.004307
NI878   NI        0.464781    0.672871    0.163954     0.004307
NI879   NI        0.501112    0.638132    0.163653     0.004307
NI880   NI        0.498216    0.675093    0.197333     0.004307
CU881   CU        0.532151    0.643760    0.195536     0.006663
CU882   CU        0.528622    0.671837    0.162345     0.006663
NI883   NI        0.563083    0.640768    0.165717     0.004307
NI884   NI        0.564504    0.671030    0.199430     0.004307
NI885   NI        0.595931    0.641477    0.198757     0.004307
NI886   NI        0.594270    0.672843    0.167304     0.004307
NI887   NI        0.627339    0.638244    0.168298     0.004307
NI888   NI        0.628563    0.671488    0.201806     0.004307
NI889   NI        0.645718    0.614749    0.203493     0.004307
NI890   NI        0.656673    0.669002    0.168749     0.004307
NI891   NI        0.690746    0.635245    0.168542     0.004307
NI892   NI        0.690894    0.668665    0.204216     0.004307
NI893   NI        0.723892    0.637952    0.203421     0.004307
NI894   NI        0.203722    0.701341    0.201862     0.004307
NI895   NI        0.234973    0.702314    0.171243     0.004307
NI896   NI        0.237268    0.731951    0.202611     0.004307
NI897   NI        0.264381    0.701044    0.202702     0.004307
NI898   NI        0.267909    0.732628    0.170736     0.004307
NI899   NI        0.299674    0.703448    0.168637     0.004307
CU900   CU        0.298578    0.737536    0.201571     0.006663
NI901   NI        0.330222    0.696038    0.238216     0.004307
NI902   NI        0.332733    0.733431    0.167948     0.004307
NI903   NI        0.366254    0.704016    0.164677     0.004307
NI904   NI        0.367729    0.737270    0.198175     0.004307
NI905   NI        0.400859    0.706222    0.195960     0.004307
NI906   NI        0.398390    0.738503    0.165195     0.004307
NI907   NI        0.431597    0.705983    0.163854     0.004307
CU908   CU        0.430460    0.738646    0.197811     0.006663
NI909   NI        0.466727    0.707506    0.199146     0.004307
NI910   NI        0.462396    0.735849    0.164381     0.004307
NI911   NI        0.499801    0.703751    0.165934     0.004307
NI912   NI        0.499966    0.736752    0.200485     0.004307
NI913   NI        0.529181    0.706539    0.198984     0.004307
NI914   NI        0.530860    0.735265    0.166151     0.004307
NI915   NI        0.561069    0.700466    0.166942     0.004307
NI916   NI        0.561462    0.735489    0.201466     0.004307
NI917   NI        0.593825    0.702587    0.201725     0.004307
NI918   NI        0.592881    0.731288    0.167907     0.004307
NI919   NI        0.627143    0.702396    0.167190     0.004307
NI920   NI        0.628059    0.733137    0.202533     0.004307
CU921   CU        0.657757    0.703401    0.204136     0.006663
NI922   NI        0.270880    0.768338    0.199292     0.004307
NI923   NI        0.299210    0.764321    0.166754     0.004307
NI924   NI        0.298669    0.797669    0.205715     0.004307
NI925   NI        0.332192    0.739343    0.230628     0.004307
CU926   CU        0.366879    0.766288    0.167529     0.006663
NI927   NI        0.365916    0.796606    0.204145     0.004307
NI928   NI        0.397807    0.767988    0.200507     0.004307
NI929   NI        0.397289    0.799767    0.169322     0.004307
NI930   NI        0.430728    0.767217    0.164975     0.004307
CU931   CU        0.432835    0.798722    0.200675     0.006663
NI932   NI        0.464251    0.767810    0.194911     0.004307
NI933   NI        0.465921    0.797924    0.166061     0.004307
CU934   CU        0.500001    0.767877    0.166379     0.006663
NI935   NI        0.497033    0.796493    0.202053     0.004307
NI936   NI        0.531743    0.766512    0.199835     0.004307
NI937   NI        0.563714    0.763531    0.168825     0.004307
NI938   NI        0.566236    0.794689    0.200040     0.004307
NI939   NI        0.595088    0.765252    0.203195     0.004307
CU940   CU        0.234256    0.090031    0.273270     0.006663
NI941   NI        0.265630    0.089229    0.237010     0.004307
NI942   NI        0.299339    0.087972    0.272250     0.004307
NI943   NI        0.330418    0.058241    0.269252     0.004307
NI944   NI        0.333172    0.087552    0.235115     0.004307
CU945   CU        0.363830    0.058567    0.237980     0.006663
CU946   CU        0.365564    0.088228    0.270099     0.006663
NI947   NI        0.396701    0.056178    0.269040     0.004307
NI948   NI        0.398701    0.088988    0.238031     0.004307
NI949   NI        0.428278    0.056627    0.235369     0.004307
NI950   NI        0.431098    0.087392    0.269450     0.004307
NI951   NI        0.466033    0.056711    0.270976     0.004307
CU952   CU        0.465026    0.087969    0.235677     0.006663
NI953   NI        0.497909    0.056951    0.234706     0.004307
CU954   CU        0.498113    0.086112    0.269353     0.006663
NI955   NI        0.528832    0.056728    0.267063     0.004307
CU956   CU        0.527395    0.087320    0.234281     0.006663
CU957   CU        0.561502    0.086091    0.268298     0.006663
NI958   NI        0.596570    0.089318    0.235993     0.004307
NI959   NI        0.626714    0.086010    0.269356     0.004307
NI960   NI        0.171038    0.150258    0.275450     0.004307
CU961   CU        0.203497    0.120017    0.271572     0.006663
NI962   NI        0.204046    0.151668    0.238178     0.004307
NI963   NI        0.235622    0.120877    0.238762     0.004307
NI964   NI        0.234430    0.149245    0.271459     0.004307
CU965   CU        0.267403    0.116380    0.270078     0.006663
NI966   NI        0.266571    0.148893    0.238370     0.004307
NI967   NI        0.299180    0.117416    0.237348     0.004307
NI968   NI        0.299275    0.148122    0.267936     0.004307
NI969   NI        0.330619    0.117551    0.268024     0.004307
NI970   NI        0.331004    0.147215    0.233122     0.004307
NI971   NI        0.364483    0.118537    0.234455     0.004307
NI972   NI        0.366363    0.163023    0.277031     0.004307
NI973   NI        0.399313    0.117794    0.268714     0.004307
CU974   CU        0.402956    0.147162    0.236954     0.006663
CU975   CU        0.432069    0.117291    0.235154     0.006663
NI976   NI        0.433042    0.145794    0.267645     0.004307
NI977   NI        0.463040    0.117326    0.268532     0.004307
CU978   CU        0.463727    0.147697    0.233604     0.006663
CU979   CU        0.499570    0.116791    0.232512     0.006663
CU980   CU        0.496446    0.144539    0.266181     0.006663
CU981   CU        0.529670    0.116333    0.268575     0.006663
NI982   NI        0.529828    0.148238    0.234467     0.004307
NI983   NI        0.563069    0.116776    0.235624     0.004307
NI984   NI        0.565373    0.146319    0.268411     0.004307
NI985   NI        0.596044    0.117972    0.270269     0.004307
CU986   CU        0.596527    0.150622    0.231893     0.006663
NI987   NI        0.627038    0.119803    0.236407     0.004307
NI988   NI        0.625130    0.147359    0.269736     0.004307
NI989   NI        0.657207    0.115803    0.269587     0.004307
NI990   NI        0.658572    0.152474    0.238788     0.004307
NI991   NI        0.691348    0.157383    0.277992     0.004307
NI992   NI        0.107124    0.213718    0.270603     0.004307
NI993   NI        0.141780    0.185590    0.273121     0.004307
CU994   CU        0.140424    0.215741    0.238439     0.006663
NI995   NI        0.171945    0.182531    0.236010     0.004307
NI996   NI        0.171042    0.215072    0.270889     0.004307
NI997   NI        0.202454    0.181812    0.269806     0.004307
CU998   CU        0.201237    0.213374    0.235706     0.006663
NI999   NI        0.235666    0.181000    0.236128     0.004307
NI1000   NI        0.232885    0.214847    0.267906     0.004307
CU1001   CU        0.264782    0.181821    0.268327     0.006663
NI1002   NI        0.264429    0.211791    0.231638     0.004307
CU1003   CU        0.299110    0.180739    0.234225     0.006663
NI1004   NI        0.304304    0.224252    0.279283     0.004307
NI1005   NI        0.335494    0.188850    0.280314     0.004307
CU1006   CU        0.333963    0.210936    0.229116     0.006663
NI1007   NI        0.362330    0.178259    0.232790     0.004307
CU1008   CU        0.368342    0.225725    0.276301     0.006663
NI1009   NI        0.397631    0.192124    0.278185     0.004307
NI1010   NI        0.400201    0.224959    0.247665     0.004307
CU1011   CU        0.431368    0.180737    0.231377     0.006663
NI1012   NI        0.429556    0.224344    0.278550     0.004307
NI1013   NI        0.462976    0.194434    0.277967     0.004307
NI1014   NI        0.464955    0.207596    0.234757     0.004307
CU1015   CU        0.498228    0.176855    0.231889     0.006663
NI1016   NI        0.500961    0.204995    0.267656     0.004307
NI1017   NI        0.532559    0.176609    0.267755     0.004307
NI1018   NI        0.530115    0.207002    0.233561     0.004307
NI1019   NI        0.562825    0.178223    0.234443     0.004307
CU1020   CU        0.560245    0.208099    0.264487     0.006663
CU1021   CU        0.593821    0.180498    0.267193     0.006663
NI1022   NI        0.596920    0.210924    0.234101     0.004307
NI1023   NI        0.626957    0.178794    0.236163     0.004307
NI1024   NI        0.626270    0.210667    0.267754     0.004307
CU1025   CU        0.651374    0.178752    0.275266     0.006663
NI1026   NI        0.654365    0.227574    0.236590     0.004307
NI1027   NI        0.695677    0.187150    0.236912     0.004307
NI1028   NI        0.698815    0.215995    0.274034     0.004307
NI1029   NI        0.725500    0.183985    0.272135     0.004307
NI1030   NI        0.726332    0.217781    0.237655     0.004307
NI1031   NI        0.756456    0.214504    0.270011     0.004307
NI1032   NI        0.079264    0.246140    0.271412     0.004307
NI1033   NI        0.077970    0.278029    0.236835     0.004307
NI1034   NI        0.108840    0.245540    0.236015     0.004307
NI1035   NI        0.107201    0.277498    0.268563     0.004307
NI1036   NI        0.137763    0.245393    0.270014     0.004307
NI1037   NI        0.138178    0.278313    0.236531     0.004307
CU1038   CU        0.169998    0.246358    0.235929     0.006663
NI1039   NI        0.167176    0.275939    0.268933     0.004307
NI1040   NI        0.200905    0.244755    0.265989     0.004307
NI1041   NI        0.201441    0.276630    0.235021     0.004307
NI1042   NI        0.231501    0.245066    0.233330     0.004307
NI1043   NI        0.230258    0.278544    0.270295     0.004307
NI1044   NI        0.272783    0.253185    0.281826     0.004307
NI1045   NI        0.273175    0.286529    0.244751     0.004307
CU1046   CU        0.303329    0.255629    0.246392     0.006663
CU1047   CU        0.304415    0.288639    0.278638     0.006663
NI1048   NI        0.335554    0.254745    0.278883     0.004307
NI1049   NI        0.336845    0.287114    0.246756     0.004307
NI1050   NI        0.372022    0.255145    0.245811     0.004307
NI1051   NI        0.369817    0.288001    0.279554     0.004307
NI1052   NI        0.401727    0.257290    0.279109     0.004307
CU1053   CU        0.402670    0.286737    0.244525     0.006663
CU1054   CU        0.432507    0.256794    0.244968     0.006663
CU1055   CU        0.433034    0.287971    0.279413     0.006663
NI1056   NI        0.462140    0.256832    0.279017     0.004307
CU1057   CU        0.464758    0.286951    0.245243     0.006663
NI1058   NI        0.497093    0.257851    0.245326     0.004307
NI1059   NI        0.495962    0.285378    0.279580     0.004307
NI1060   NI        0.528243    0.259463    0.278747     0.004307
NI1061   NI        0.528931    0.286067    0.243567     0.004307
NI1062   NI        0.560219    0.255655    0.244753     0.004307
NI1063   NI        0.559074    0.285932    0.278472     0.004307
NI1064   NI        0.589234    0.254673    0.278941     0.004307
NI1065   NI        0.591109    0.283593    0.244493     0.004307
NI1066   NI        0.619032    0.249704    0.244485     0.004307
CU1067   CU        0.621592    0.284270    0.277728     0.006663
NI1068   NI        0.648892    0.251991    0.273792     0.004307
NI1069   NI        0.658077    0.269400    0.232856     0.004307
NI1070   NI        0.697370    0.253682    0.242138     0.004307
NI1071   NI        0.680722    0.283034    0.269885     0.004307
NI1072   NI        0.728001    0.246476    0.273071     0.004307
CU1073   CU        0.731177    0.280435    0.241863     0.006663
NI1074   NI        0.757890    0.247284    0.240876     0.004307
NI1075   NI        0.761680    0.277522    0.273337     0.004307
CU1076   CU        0.787447    0.244583    0.272129     0.006663
NI1077   NI        0.789304    0.279559    0.237863     0.004307
NI1078   NI        0.049861    0.342933    0.262906     0.004307
CU1079   CU        0.076837    0.310292    0.268473     0.006663
NI1080   NI        0.078599    0.343232    0.230494     0.004307
NI1081   NI        0.106352    0.311585    0.234902     0.004307
CU1082   CU        0.103824    0.344123    0.268449     0.006663
NI1083   NI        0.135256    0.311422    0.268678     0.004307
CU1084   CU        0.138442    0.343137    0.235515     0.006663
CU1085   CU        0.168461    0.310868    0.233991     0.006663
NI1086   NI        0.166903    0.341287    0.268947     0.004307
NI1087   NI        0.208211    0.321233    0.278149     0.004307
NI1088   NI        0.196888    0.341444    0.234573     0.004307
NI1089   NI        0.240132    0.316643    0.245777     0.004307
NI1090   NI        0.242637    0.349654    0.277274     0.004307
NI1091   NI        0.272841    0.318005    0.278595     0.004307
NI1092   NI        0.273314    0.346637    0.244274     0.004307
NI1093   NI        0.307232    0.318002    0.247204     0.004307
CU1094   CU        0.303063    0.349310    0.280030     0.006663
NI1095   NI        0.338733    0.318235    0.279944     0.004307
CU1096   CU        0.336305    0.348373    0.245440     0.006663
CU1097   CU        0.369326    0.317489    0.246390     0.006663
CU1098   CU        0.368901    0.348325    0.276365     0.006663
CU1099   CU        0.401694    0.316945    0.277439     0.006663
CU1100   CU        0.400827    0.348138    0.243542     0.006663
NI1101   NI        0.434049    0.318508    0.245833     0.004307
CU1102   CU        0.432991    0.349580    0.278027     0.006663
CU1103   CU        0.464108    0.316998    0.278717     0.006663
CU1104   CU        0.465026    0.347552    0.244224     0.006663
NI1105   NI        0.496949    0.318057    0.244266     0.004307
CU1106   CU        0.495060    0.349303    0.278417     0.006663
CU1107   CU        0.524801    0.316756    0.282266     0.006663
CU1108   CU        0.529595    0.348844    0.243328     0.006663
CU1109   CU        0.562889    0.316611    0.242505     0.006663
CU1110   CU        0.558922    0.345641    0.278401     0.006663
CU1111   CU        0.589456    0.315255    0.277668     0.006663
CU1112   CU        0.589880    0.347573    0.245346     0.006663
NI1113   NI        0.620240    0.314292    0.244546     0.004307
CU1114   CU        0.618904    0.347346    0.277170     0.006663
CU1115   CU        0.651802    0.315541    0.276892     0.006663
NI1116   NI        0.647903    0.349249    0.246529     0.004307
NI1117   NI        0.703385    0.311378    0.237826     0.004307
NI1118   NI        0.679162    0.347899    0.277378     0.004307
CU1119   CU        0.731024    0.311536    0.273768     0.006663
CU1120   CU        0.716650    0.370253    0.236887     0.006663
NI1121   NI        0.762452    0.309948    0.240471     0.004307
NI1122   NI        0.764459    0.342172    0.271695     0.004307
NI1123   NI        0.791868    0.310593    0.275359     0.004307
CU1124   CU        0.783739    0.345779    0.233161     0.006663
CU1125   CU        0.814504    0.345601    0.266308     0.006663
NI1126   NI        0.048907    0.375017    0.234587     0.004307
NI1127   NI        0.049747    0.408638    0.261770     0.004307
NI1128   NI        0.077972    0.377002    0.267326     0.004307
NI1129   NI        0.078200    0.410218    0.231991     0.004307
NI1130   NI        0.108737    0.377203    0.233305     0.004307
CU1131   CU        0.106224    0.410683    0.268458     0.006663
NI1132   NI        0.134838    0.375389    0.267548     0.004307
NI1133   NI        0.138408    0.406692    0.235205     0.004307
CU1134   CU        0.168592    0.374470    0.235167     0.006663
NI1135   NI        0.163203    0.408704    0.270088     0.004307
NI1136   NI        0.205326    0.376537    0.262124     0.004307
CU1137   CU        0.195368    0.411308    0.235582     0.006663
CU1138   CU        0.245018    0.379461    0.244444     0.006663
NI1139   NI        0.242481    0.411391    0.282038     0.004307
CU1140   CU        0.274362    0.381782    0.279926     0.006663
CU1141   CU        0.274562    0.412128    0.245045     0.006663
NI1142   NI        0.306062    0.381098    0.245526     0.004307
CU1143   CU        0.303779    0.414519    0.278374     0.006663
CU1144   CU        0.336144    0.383168    0.276802     0.006663
CU1145   CU        0.336180    0.411593    0.243446     0.006663
CU1146   CU        0.367932    0.380120    0.244572     0.006663
CU1147   CU        0.369053    0.410876    0.276938     0.006663
CU1148   CU        0.400018    0.381750    0.276180     0.006663
CU1149   CU        0.402873    0.411488    0.243069     0.006663
NI1150   NI        0.433461    0.377754    0.243373     0.004307
CU1151   CU        0.431350    0.410681    0.275493     0.006663
CU1152   CU        0.464588    0.379028    0.275485     0.006663
NI1153   NI        0.465675    0.409872    0.242097     0.004307
NI1154   NI        0.497135    0.378129    0.242187     0.004307
NI1155   NI        0.495714    0.407159    0.277333     0.004307
CU1156   CU        0.527398    0.378084    0.276034     0.006663
CU1157   CU        0.526127    0.409809    0.242911     0.006663
CU1158   CU        0.558466    0.379960    0.245495     0.006663
CU1159   CU        0.558018    0.409929    0.279140     0.006663
CU1160   CU        0.590159    0.378538    0.277648     0.006663
NI1161   NI        0.587858    0.410386    0.243413     0.004307
NI1162   NI        0.619013    0.382249    0.244829     0.004307
NI1163   NI        0.619339    0.411927    0.279728     0.004307
NI1164   NI        0.649191    0.381771    0.277482     0.004307
CU1165   CU        0.651101    0.412235    0.244542     0.006663
NI1166   NI        0.677131    0.378563    0.242957     0.004307
CU1167   CU        0.681351    0.411520    0.278762     0.006663
NI1168   NI        0.734848    0.376775    0.276667     0.004307
NI1169   NI        0.724107    0.412054    0.229176     0.004307
NI1170   NI        0.756841    0.382317    0.235464     0.004307
NI1171   NI        0.757783    0.412240    0.271294     0.004307
NI1172   NI        0.786684    0.378960    0.268481     0.004307
NI1173   NI        0.787258    0.413192    0.236902     0.004307
CU1174   CU        0.814692    0.376024    0.234417     0.006663
CU1175   CU        0.817344    0.412591    0.271377     0.006663
NI1176   NI        0.046886    0.443299    0.233357     0.004307
CU1177   CU        0.047536    0.478739    0.265691     0.006663
NI1178   NI        0.077395    0.445091    0.267934     0.004307
NI1179   NI        0.075501    0.474788    0.232014     0.004307
NI1180   NI        0.108165    0.443512    0.232769     0.004307
CU1181   CU        0.104097    0.476367    0.264629     0.006663
NI1182   NI        0.134247    0.443714    0.269646     0.004307
NI1183   NI        0.138615    0.476342    0.235141     0.004307
NI1184   NI        0.168797    0.445300    0.235780     0.004307
NI1185   NI        0.171168    0.477022    0.266063     0.004307
CU1186   CU        0.205284    0.446819    0.261597     0.006663
CU1187   CU        0.201275    0.480744    0.232589     0.006663
CU1188   CU        0.244518    0.443655    0.244925     0.006663
NI1189   NI        0.239449    0.474310    0.276932     0.004307
NI1190   NI        0.271858    0.443860    0.278898     0.004307
NI1191   NI        0.271679    0.475094    0.243056     0.004307
CU1192   CU        0.303165    0.443588    0.242275     0.006663
CU1193   CU        0.304668    0.474666    0.275252     0.006663
CU1194   CU        0.337731    0.442789    0.275582     0.006663
CU1195   CU        0.336171    0.474121    0.244325     0.006663
CU1196   CU        0.368496    0.442351    0.242522     0.006663
CU1197   CU        0.368154    0.471990    0.275401     0.006663
NI1198   NI        0.401420    0.441290    0.277423     0.004307
CU1199   CU        0.398939    0.472356    0.244055     0.006663
CU1200   CU        0.433882    0.441876    0.242482     0.006663
CU1201   CU        0.431743    0.473042    0.276139     0.006663
CU1202   CU        0.465492    0.441086    0.276042     0.006663
NI1203   NI        0.463852    0.472804    0.245134     0.004307
NI1204   NI        0.495576    0.441446    0.244525     0.004307
CU1205   CU        0.495372    0.473447    0.276788     0.006663
CU1206   CU        0.525193    0.442541    0.278289     0.006663
CU1207   CU        0.524020    0.472601    0.244473     0.006663
CU1208   CU        0.557693    0.441004    0.247520     0.006663
CU1209   CU        0.556818    0.473869    0.276600     0.006663
CU1210   CU        0.587648    0.440989    0.277293     0.006663
CU1211   CU        0.586504    0.473444    0.245596     0.006663
NI1212   NI        0.620063    0.441673    0.244764     0.004307
CU1213   CU        0.619020    0.472280    0.277102     0.006663
NI1214   NI        0.652315    0.442365    0.279480     0.004307
NI1215   NI        0.651564    0.472430    0.244595     0.004307
NI1216   NI        0.685735    0.437893    0.246543     0.004307
NI1217   NI        0.683736    0.469734    0.281678     0.004307
NI1218   NI        0.717973    0.443587    0.280237     0.004307
CU1219   CU        0.728430    0.476575    0.232354     0.006663
CU1220   CU        0.757920    0.445326    0.233767     0.006663
NI1221   NI        0.757405    0.479338    0.268936     0.004307
NI1222   NI        0.787660    0.446099    0.271013     0.004307
NI1223   NI        0.788133    0.474222    0.236547     0.004307
NI1224   NI        0.817614    0.442958    0.240748     0.004307
NI1225   NI        0.817063    0.477187    0.271121     0.004307
NI1226   NI        0.048380    0.509377    0.233797     0.004307
NI1227   NI        0.048401    0.541456    0.265319     0.004307
NI1228   NI        0.075703    0.511581    0.266029     0.004307
NI1229   NI        0.077763    0.541220    0.233950     0.004307
NI1230   NI        0.107342    0.510106    0.233939     0.004307
CU1231   CU        0.106754    0.544818    0.266854     0.006663
CU1232   CU        0.134979    0.510968    0.265969     0.006663
CU1233   CU        0.139662    0.544755    0.232810     0.006663
NI1234   NI        0.167282    0.512266    0.235337     0.004307
NI1235   NI        0.166321    0.545320    0.270239     0.004307
NI1236   NI        0.209076    0.504075    0.275412     0.004307
NI1237   NI        0.209333    0.537782    0.245346     0.004307
CU1238   CU        0.241495    0.505054    0.242808     0.006663
CU1239   CU        0.241470    0.534557    0.276050     0.006663
CU1240   CU        0.272748    0.505324    0.274285     0.006663
NI1241   NI        0.273898    0.538458    0.244890     0.004307
CU1242   CU        0.305112    0.505976    0.245065     0.006663
CU1243   CU        0.304484    0.535485    0.276776     0.006663
NI1244   NI        0.337110    0.504856    0.274961     0.004307
CU1245   CU        0.338869    0.535628    0.245641     0.006663
NI1246   NI        0.368407    0.504901    0.244274     0.004307
CU1247   CU        0.368136    0.533928    0.278396     0.006663
CU1248   CU        0.401296    0.502824    0.277239     0.006663
NI1249   NI        0.402174    0.537305    0.244881     0.004307
CU1250   CU        0.432118    0.505990    0.244036     0.006663
NI1251   NI        0.432163    0.534147    0.278716     0.004307
CU1252   CU        0.460798    0.504500    0.276472     0.006663
CU1253   CU        0.463684    0.535837    0.245261     0.006663
CU1254   CU        0.492117    0.504407    0.245215     0.006663
CU1255   CU        0.493140    0.536191    0.278463     0.006663
NI1256   NI        0.525938    0.503256    0.277466     0.004307
CU1257   CU        0.524086    0.534751    0.248187     0.006663
CU1258   CU        0.555594    0.506274    0.245056     0.006663
CU1259   CU        0.555937    0.537352    0.280829     0.006663
NI1260   NI        0.585709    0.505414    0.277393     0.004307
NI1261   NI        0.585645    0.537298    0.247294     0.004307
CU1262   CU        0.621112    0.504996    0.246343     0.006663
NI1263   NI        0.615244    0.535157    0.281325     0.004307
NI1264   NI        0.648374    0.503989    0.280093     0.004307
NI1265   NI        0.645406    0.540309    0.252386     0.004307
NI1266   NI        0.679671    0.503381    0.253423     0.004307
NI1267   NI        0.680260    0.536729    0.281124     0.004307
NI1268   NI        0.715465    0.504516    0.281604     0.004307
NI1269   NI        0.727416    0.541933    0.233964     0.004307
NI1270   NI        0.755898    0.508414    0.231895     0.004307
NI1271   NI        0.757956    0.542976    0.268853     0.004307
NI1272   NI        0.785643    0.511322    0.270313     0.004307
NI1273   NI        0.785187    0.542040    0.235042     0.004307
NI1274   NI        0.814632    0.511044    0.236426     0.004307
NI1275   NI        0.816600    0.542408    0.271981     0.004307
NI1276   NI        0.077475    0.572935    0.269931     0.004307
NI1277   NI        0.076616    0.610097    0.236951     0.004307
NI1278   NI        0.107971    0.576519    0.236896     0.004307
NI1279   NI        0.106130    0.608223    0.270807     0.004307
CU1280   CU        0.136792    0.577237    0.269658     0.006663
CU1281   CU        0.138339    0.608498    0.234552     0.006663
CU1282   CU        0.167385    0.577419    0.235676     0.006663
CU1283   CU        0.167976    0.608386    0.268190     0.006663
NI1284   NI        0.210435    0.567344    0.279175     0.004307
NI1285   NI        0.197794    0.606439    0.233030     0.004307
NI1286   NI        0.242836    0.567644    0.247154     0.004307
NI1287   NI        0.243458    0.600561    0.278829     0.004307
NI1288   NI        0.272887    0.567435    0.278526     0.004307
NI1289   NI        0.276112    0.599277    0.248654     0.004307
NI1290   NI        0.305669    0.567079    0.247321     0.004307
CU1291   CU        0.306909    0.597847    0.279972     0.006663
CU1292   CU        0.337503    0.566811    0.280677     0.006663
CU1293   CU        0.338477    0.596914    0.247647     0.006663
CU1294   CU        0.369463    0.564183    0.247646     0.006663
CU1295   CU        0.369605    0.595218    0.280417     0.006663
CU1296   CU        0.401785    0.565219    0.277903     0.006663
NI1297   NI        0.402395    0.597686    0.248547     0.004307
CU1298   CU        0.434301    0.566495    0.249560     0.006663
CU1299   CU        0.432480    0.598040    0.280278     0.006663
CU1300   CU        0.466277    0.566503    0.277151     0.006663
NI1301   NI        0.464423    0.598890    0.247617     0.004307
NI1302   NI        0.496858    0.568069    0.244840     0.004307
CU1303   CU        0.496123    0.599589    0.279233     0.006663
NI1304   NI        0.523697    0.566721    0.281785     0.004307
NI1305   NI        0.526764    0.599526    0.249564     0.004307
NI1306   NI        0.551681    0.567055    0.248985     0.004307
NI1307   NI        0.563967    0.607574    0.269349     0.004307
NI1308   NI        0.585931    0.568728    0.279658     0.004307
NI1309   NI        0.593982    0.608854    0.231425     0.004307
NI1310   NI        0.616002    0.570076    0.247595     0.004307
NI1311   NI        0.629286    0.609029    0.266315     0.004307
CU1312   CU        0.664937    0.575501    0.271412     0.006663
CU1313   CU        0.666240    0.608269    0.240802     0.006663
NI1314   NI        0.700277    0.576795    0.236937     0.004307
NI1315   NI        0.696278    0.610085    0.271159     0.004307
NI1316   NI        0.729472    0.579639    0.272172     0.004307
NI1317   NI        0.726869    0.610127    0.239875     0.004307
NI1318   NI        0.754510    0.574168    0.236605     0.004307
NI1319   NI        0.757811    0.609774    0.272634     0.004307
CU1320   CU        0.787820    0.575038    0.270216     0.006663
NI1321   NI        0.784756    0.605670    0.235317     0.004307
NI1322   NI        0.080231    0.639960    0.271466     0.004307
NI1323   NI        0.107702    0.637772    0.233504     0.004307
CU1324   CU        0.108649    0.672121    0.271487     0.006663
CU1325   CU        0.138430    0.640368    0.266712     0.006663
NI1326   NI        0.140918    0.669965    0.233103     0.004307
NI1327   NI        0.169579    0.638518    0.235269     0.004307
CU1328   CU        0.170109    0.671517    0.271289     0.006663
NI1329   NI        0.200219    0.640778    0.269522     0.004307
NI1330   NI        0.201873    0.671217    0.235042     0.004307
NI1331   NI        0.229494    0.638514    0.234179     0.004307
NI1332   NI        0.229763    0.673077    0.268084     0.004307
NI1333   NI        0.274676    0.628725    0.280453     0.004307
CU1334   CU        0.261870    0.669168    0.236981     0.006663
CU1335   CU        0.307553    0.628801    0.247178     0.006663
NI1336   NI        0.307972    0.656891    0.278686     0.004307
CU1337   CU        0.337245    0.628601    0.280472     0.006663
NI1338   NI        0.340069    0.657792    0.247221     0.004307
NI1339   NI        0.370720    0.625873    0.250656     0.004307
CU1340   CU        0.370680    0.657785    0.281281     0.006663
NI1341   NI        0.402075    0.628769    0.281150     0.004307
NI1342   NI        0.400824    0.677800    0.231673     0.004307
CU1343   CU        0.430848    0.629207    0.249310     0.006663
NI1344   NI        0.434579    0.659536    0.280512     0.004307
CU1345   CU        0.463331    0.629617    0.280976     0.006663
NI1346   NI        0.463582    0.658882    0.248685     0.004307
NI1347   NI        0.496297    0.629740    0.248404     0.004307
CU1348   CU        0.494470    0.660296    0.279448     0.006663
NI1349   NI        0.524742    0.631897    0.280288     0.004307
NI1350   NI        0.531918    0.674004    0.229650     0.004307
NI1351   NI        0.563968    0.642655    0.232553     0.004307
NI1352   NI        0.563769    0.673900    0.267145     0.004307
NI1353   NI        0.594517    0.640156    0.265686     0.004307
NI1354   NI        0.596309    0.671466    0.234643     0.004307
NI1355   NI        0.626516    0.640468    0.233077     0.004307
CU1356   CU        0.627290    0.672503    0.267941     0.006663
NI1357   NI        0.663342    0.641170    0.271568     0.004307
NI1358   NI        0.660981    0.672414    0.236488     0.004307
NI1359   NI        0.695211    0.639630    0.236665     0.004307
NI1360   NI        0.692736    0.671326    0.269947     0.004307
CU1361   CU        0.726374    0.641889    0.271572     0.006663
NI1362   NI        0.724988    0.670387    0.239475     0.004307
NI1363   NI        0.756764    0.638279    0.237894     0.004307
NI1364   NI        0.757146    0.672239    0.272748     0.004307
NI1365   NI        0.787878    0.640209    0.276152     0.004307
NI1366   NI        0.141472    0.701004    0.269452     0.004307
NI1367   NI        0.170299    0.701152    0.234082     0.004307
NI1368   NI        0.169942    0.735696    0.271864     0.004307
NI1369   NI        0.201147    0.705138    0.271361     0.004307
NI1370   NI        0.201520    0.733536    0.236704     0.004307
NI1371   NI        0.232774    0.703101    0.234803     0.004307
NI1372   NI        0.234655    0.735603    0.267737     0.004307
NI1373   NI        0.268220    0.680130    0.279503     0.004307
NI1374   NI        0.267280    0.736017    0.235211     0.004307
NI1375   NI        0.303150    0.697434    0.270183     0.004307
NI1376   NI        0.296800    0.738675    0.272464     0.004307
CU1377   CU        0.340362    0.686837    0.280178     0.006663
CU1378   CU        0.336576    0.727108    0.272248     0.006663
NI1379   NI        0.368611    0.707146    0.229760     0.004307
NI1380   NI        0.377283    0.734160    0.269963     0.004307
NI1381   NI        0.399308    0.691581    0.277056     0.004307
NI1382   NI        0.401054    0.738347    0.232971     0.004307
NI1383   NI        0.432048    0.706797    0.226615     0.004307
NI1384   NI        0.429451    0.740067    0.268636     0.004307
NI1385   NI        0.462714    0.691705    0.280721     0.004307
NI1386   NI        0.464219    0.739101    0.232081     0.004307
NI1387   NI        0.498585    0.706775    0.232625     0.004307
NI1388   NI        0.499304    0.737281    0.267260     0.004307
CU1389   CU        0.534159    0.703616    0.267865     0.006663
NI1390   NI        0.531089    0.736196    0.235667     0.004307
NI1391   NI        0.562109    0.705522    0.234717     0.004307
CU1392   CU        0.564473    0.736249    0.269964     0.006663
CU1393   CU        0.596904    0.704629    0.271820     0.006663
NI1394   NI        0.596463    0.734319    0.236875     0.004307
CU1395   CU        0.626263    0.704286    0.237029     0.006663
NI1396   NI        0.628338    0.734307    0.271018     0.004307
NI1397   NI        0.657445    0.703179    0.267975     0.004307
NI1398   NI        0.660146    0.734187    0.238279     0.004307
NI1399   NI        0.691712    0.703822    0.237121     0.004307
CU1400   CU        0.688552    0.731855    0.274378     0.006663
NI1401   NI        0.724437    0.702565    0.272703     0.004307
CU1402   CU        0.200517    0.764762    0.271306     0.006663
CU1403   CU        0.232762    0.766259    0.240107     0.006663
NI1404   NI        0.234503    0.795528    0.270942     0.004307
CU1405   CU        0.265249    0.766035    0.270775     0.006663
NI1406   NI        0.266511    0.794043    0.238381     0.004307
NI1407   NI        0.297308    0.767023    0.235663     0.004307
NI1408   NI        0.298211    0.797029    0.269953     0.004307
NI1409   NI        0.329860    0.767159    0.266608     0.004307
NI1410   NI        0.332683    0.796090    0.237115     0.004307
NI1411   NI        0.368194    0.765527    0.234077     0.004307
NI1412   NI        0.365676    0.796346    0.267252     0.004307
CU1413   CU        0.400398    0.768510    0.266168     0.006663
CU1414   CU        0.398512    0.798958    0.235309     0.006663
NI1415   NI        0.432421    0.768868    0.235165     0.004307
NI1416   NI        0.431698    0.796383    0.268565     0.004307
NI1417   NI        0.464549    0.768807    0.265926     0.004307
CU1418   CU        0.465331    0.798481    0.234884     0.006663
CU1419   CU        0.499387    0.764668    0.232402     0.006663
CU1420   CU        0.496682    0.796389    0.268036     0.006663
NI1421   NI        0.531093    0.768420    0.269697     0.004307
NI1422   NI        0.530149    0.796270    0.235185     0.004307
CU1423   CU        0.563727    0.767741    0.235808     0.006663
NI1424   NI        0.563756    0.797187    0.271833     0.004307
NI1425   NI        0.596310    0.767769    0.271475     0.004307
NI1426   NI        0.595478    0.794054    0.238889     0.004307
NI1427   NI        0.627031    0.765747    0.237286     0.004307
NI1428   NI        0.629359    0.794381    0.270336     0.004307
NI1429   NI        0.659068    0.762992    0.271070     0.004307
NI1430   NI        0.332201    0.826993    0.269000     0.004307
NI1431   NI        0.363938    0.826261    0.234152     0.004307
NI1432   NI        0.398558    0.825589    0.269619     0.004307
CU1433   CU        0.432431    0.825815    0.238266     0.006663
NI1434   NI        0.466801    0.829572    0.269153     0.004307
NI1435   NI        0.498099    0.826470    0.235322     0.004307
NI1436   NI        0.529748    0.826925    0.270805     0.004307
NI1437   NI        0.366480    0.026848    0.338043     0.004307
NI1438   NI        0.400982    0.029283    0.305249     0.004307
NI1439   NI        0.430021    0.027659    0.338973     0.004307
NI1440   NI        0.464439    0.028870    0.307447     0.004307
NI1441   NI        0.496174    0.027579    0.338909     0.004307
NI1442   NI        0.204319    0.088399    0.307471     0.004307
NI1443   NI        0.234618    0.085606    0.340606     0.004307
NI1444   NI        0.267063    0.057685    0.340775     0.004307
NI1445   NI        0.265048    0.088076    0.305638     0.004307
NI1446   NI        0.297315    0.058727    0.305719     0.004307
CU1447   CU        0.299647    0.086817    0.339436     0.006663
NI1448   NI        0.331714    0.057113    0.338606     0.004307
CU1449   CU        0.331121    0.085818    0.303709     0.006663
NI1450   NI        0.366469    0.056975    0.303005     0.004307
NI1451   NI        0.362990    0.085562    0.340349     0.004307
CU1452   CU        0.398594    0.057673    0.340030     0.006663
NI1453   NI        0.397969    0.088768    0.305891     0.004307
NI1454   NI        0.432696    0.058197    0.306001     0.004307
CU1455   CU        0.433463    0.086649    0.341006     0.006663
CU1456   CU        0.463612    0.055592    0.340802     0.006663
NI1457   NI        0.465759    0.086901    0.306297     0.004307
NI1458   NI        0.496353    0.057059    0.304794     0.004307
NI1459   NI        0.496781    0.085345    0.337126     0.004307
NI1460   NI        0.529274    0.057889    0.338444     0.004307
NI1461   NI        0.531687    0.085209    0.302408     0.004307
NI1462   NI        0.563881    0.056551    0.302456     0.004307
NI1463   NI        0.564378    0.084467    0.336590     0.004307
NI1464   NI        0.598152    0.056336    0.340558     0.004307
CU1465   CU        0.595311    0.084868    0.301991     0.006663
NI1466   NI        0.627491    0.085301    0.337053     0.004307
NI1467   NI        0.660439    0.089900    0.305209     0.004307
NI1468   NI        0.106776    0.150945    0.338535     0.004307
NI1469   NI        0.137692    0.084125    0.379452     0.004307
NI1470   NI        0.140236    0.154643    0.308263     0.004307
NI1471   NI        0.172280    0.121188    0.304845     0.004307
CU1472   CU        0.172144    0.151423    0.341407     0.006663
NI1473   NI        0.201940    0.119062    0.337732     0.004307
CU1474   CU        0.203862    0.151657    0.305440     0.006663
NI1475   NI        0.235525    0.119794    0.306191     0.004307
NI1476   NI        0.235158    0.150381    0.339592     0.004307
NI1477   NI        0.264155    0.117250    0.339836     0.004307
NI1478   NI        0.264088    0.149831    0.302730     0.004307
CU1479   CU        0.297976    0.116593    0.303477     0.006663
NI1480   NI        0.305375    0.158458    0.347010     0.004307
NI1481   NI        0.331479    0.112575    0.339308     0.004307
NI1482   NI        0.336159    0.159441    0.314072     0.004307
NI1483   NI        0.367545    0.127353    0.314689     0.004307
NI1484   NI        0.368415    0.161415    0.345890     0.004307
CU1485   CU        0.397351    0.109680    0.343651     0.006663
CU1486   CU        0.397024    0.161914    0.312728     0.006663
NI1487   NI        0.434863    0.114966    0.304478     0.004307
NI1488   NI        0.428461    0.169555    0.349338     0.004307
NI1489   NI        0.465313    0.115052    0.340830     0.004307
NI1490   NI        0.465852    0.143005    0.303445     0.004307
CU1491   CU        0.498034    0.116006    0.301950     0.006663
NI1492   NI        0.499260    0.142136    0.338194     0.004307
CU1493   CU        0.533257    0.113425    0.338607     0.006663
CU1494   CU        0.529755    0.144123    0.304734     0.006663
NI1495   NI        0.561844    0.115139    0.302534     0.004307
NI1496   NI        0.563000    0.144480    0.334209     0.004307
NI1497   NI        0.594527    0.116020    0.336850     0.004307
CU1498   CU        0.594897    0.146827    0.302451     0.006663
NI1499   NI        0.624890    0.115178    0.303965     0.004307
CU1500   CU        0.626541    0.143306    0.335412     0.006663
NI1501   NI        0.662179    0.118111    0.340366     0.004307
CU1502   CU        0.664631    0.157427    0.312637     0.006663
NI1503   NI        0.689942    0.123727    0.305271     0.004307
NI1504   NI        0.694388    0.148722    0.342651     0.004307
NI1505   NI        0.725030    0.121864    0.340639     0.004307
NI1506   NI        0.722214    0.151712    0.310992     0.004307
NI1507   NI        0.757763    0.153254    0.339491     0.004307
NI1508   NI        0.079441    0.213479    0.305250     0.004307
CU1509   CU        0.108661    0.183042    0.304785     0.006663
NI1510   NI        0.107521    0.214292    0.343342     0.004307
NI1511   NI        0.137572    0.182011    0.341078     0.004307
NI1512   NI        0.137462    0.213476    0.306187     0.004307
NI1513   NI        0.171901    0.180908    0.307098     0.004307
NI1514   NI        0.168274    0.212387    0.340038     0.004307
NI1515   NI        0.203457    0.182439    0.339513     0.004307
CU1516   CU        0.200469    0.213596    0.303805     0.006663
NI1517   NI        0.233778    0.182445    0.302759     0.004307
NI1518   NI        0.242898    0.224426    0.347367     0.004307
NI1519   NI        0.272482    0.191856    0.346643     0.004307
CU1520   CU        0.271364    0.224577    0.313648     0.006663
NI1521   NI        0.301597    0.192818    0.310815     0.004307
CU1522   CU        0.303963    0.220804    0.345381     0.006663
NI1523   NI        0.337468    0.191923    0.342217     0.004307
CU1524   CU        0.334747    0.224340    0.310975     0.006663
NI1525   NI        0.367825    0.192644    0.309379     0.004307
NI1526   NI        0.367229    0.223883    0.343435     0.004307
NI1527   NI        0.396030    0.194687    0.343502     0.004307
CU1528   CU        0.397411    0.225310    0.310938     0.006663
NI1529   NI        0.430601    0.192372    0.311579     0.004307
NI1530   NI        0.431449    0.223384    0.343687     0.004307
NI1531   NI        0.461033    0.193670    0.344543     0.004307
NI1532   NI        0.460422    0.224789    0.311116     0.004307
NI1533   NI        0.491536    0.194743    0.310967     0.004307
CU1534   CU        0.494171    0.222593    0.345877     0.006663
NI1535   NI        0.527935    0.177047    0.335276     0.004307
NI1536   NI        0.531802    0.206761    0.302953     0.004307
NI1537   NI        0.562375    0.175490    0.300205     0.004307
NI1538   NI        0.562864    0.222289    0.342811     0.004307
NI1539   NI        0.597426    0.193317    0.343188     0.004307
NI1540   NI        0.595796    0.222524    0.310460     0.004307
NI1541   NI        0.629781    0.194899    0.310327     0.004307
NI1542   NI        0.624907    0.224020    0.345362     0.004307
NI1543   NI        0.658978    0.196530    0.342645     0.004307
NI1544   NI        0.659183    0.229219    0.313359     0.004307
CU1545   CU        0.697485    0.186468    0.310422     0.006663
NI1546   NI        0.697279    0.216730    0.342306     0.004307
NI1547   NI        0.728040    0.183233    0.341381     0.004307
NI1548   NI        0.727301    0.215470    0.306647     0.004307
NI1549   NI        0.756537    0.182307    0.304816     0.004307
NI1550   NI        0.757837    0.214947    0.340623     0.004307
NI1551   NI        0.786244    0.213016    0.305725     0.004307
CU1552   CU        0.044871    0.277265    0.339686     0.006663
NI1553   NI        0.076570    0.246004    0.340618     0.004307
CU1554   CU        0.076066    0.278085    0.305177     0.006663
CU1555   CU        0.106535    0.246709    0.304076     0.006663
NI1556   NI        0.104952    0.278455    0.340008     0.004307
NI1557   NI        0.135562    0.246497    0.336159     0.004307
NI1558   NI        0.134334    0.280639    0.304384     0.004307
NI1559   NI        0.166394    0.243867    0.305266     0.004307
NI1560   NI        0.178267    0.284246    0.345292     0.004307
CU1561   CU        0.210204    0.256062    0.343994     0.006663
CU1562   CU        0.207619    0.285769    0.312852     0.006663
NI1563   NI        0.240984    0.256600    0.310694     0.004307
CU1564   CU        0.239658    0.285487    0.344313     0.006663
CU1565   CU        0.273249    0.256054    0.345416     0.006663
NI1566   NI        0.272494    0.287628    0.311489     0.004307
NI1567   NI        0.302643    0.255104    0.312681     0.004307
NI1568   NI        0.304657    0.287548    0.345742     0.004307
NI1569   NI        0.335557    0.252621    0.346632     0.004307
NI1570   NI        0.335387    0.285408    0.311641     0.004307
CU1571   CU        0.368946    0.255557    0.309612     0.006663
CU1572   CU        0.368632    0.285423    0.344503     0.006663
NI1573   NI        0.399973    0.255233    0.344745     0.004307
NI1574   NI        0.400945    0.285766    0.312396     0.004307
NI1575   NI        0.431846    0.255084    0.314356     0.004307
CU1576   CU        0.430295    0.286588    0.346552     0.006663
CU1577   CU        0.463864    0.255132    0.344329     0.006663
CU1578   CU        0.463212    0.284926    0.310771     0.006663
CU1579   CU        0.494140    0.254012    0.310737     0.006663
CU1580   CU        0.495388    0.283509    0.343968     0.006663
NI1581   NI        0.527449    0.252911    0.345917     0.004307
CU1582   CU        0.526848    0.285770    0.313345     0.006663
NI1583   NI        0.560526    0.255943    0.313983     0.004307
CU1584   CU        0.559874    0.284916    0.346109     0.006663
CU1585   CU        0.593141    0.252246    0.344080     0.006663
NI1586   NI        0.590620    0.286114    0.312179     0.004307
NI1587   NI        0.623844    0.253021    0.310563     0.004307
CU1588   CU        0.620991    0.286771    0.344676     0.006663
NI1589   NI        0.651903    0.255369    0.348749     0.004307
NI1590   NI        0.661425    0.272454    0.308974     0.004307
CU1591   CU        0.697608    0.247651    0.305633     0.006663
CU1592   CU        0.683425    0.285489    0.347128     0.006663
NI1593   NI        0.728005    0.246495    0.338739     0.004307
CU1594   CU        0.730515    0.278646    0.304451     0.006663
CU1595   CU        0.759209    0.245792    0.305828     0.006663
NI1596   NI        0.759424    0.278522    0.341962     0.004307
NI1597   NI        0.786945    0.245236    0.343299     0.004307
NI1598   NI        0.789068    0.277844    0.307847     0.004307
NI1599   NI        0.817985    0.280277    0.345416     0.004307
NI1600   NI        0.045563    0.309033    0.301468     0.004307
NI1601   NI        0.044095    0.341915    0.342081     0.004307
NI1602   NI        0.071999    0.309687    0.339363     0.004307
NI1603   NI        0.072904    0.342903    0.300980     0.004307
CU1604   CU        0.105058    0.313297    0.301871     0.006663
NI1605   NI        0.099169    0.344933    0.336454     0.004307
NI1606   NI        0.129851    0.314047    0.339886     0.004307
NI1607   NI        0.132061    0.344001    0.302966     0.004307
CU1608   CU        0.177541    0.316177    0.309952     0.006663
NI1609   NI        0.175697    0.349504    0.343292     0.004307
NI1610   NI        0.207985    0.317029    0.344437     0.004307
CU1611   CU        0.208181    0.349207    0.313357     0.006663
NI1612   NI        0.239789    0.319821    0.313539     0.004307
NI1613   NI        0.239513    0.350075    0.345026     0.004307
NI1614   NI        0.270808    0.318334    0.346677     0.004307
NI1615   NI        0.270835    0.349145    0.312384     0.004307
NI1616   NI        0.303043    0.319065    0.311164     0.004307
NI1617   NI        0.306919    0.349124    0.345892     0.004307
NI1618   NI        0.336964    0.319147    0.345480     0.004307
CU1619   CU        0.335592    0.348691    0.312150     0.006663
CU1620   CU        0.368359    0.318447    0.311515     0.006663
CU1621   CU        0.369530    0.349580    0.343388     0.006663
CU1622   CU        0.399716    0.318306    0.343532     0.006663
NI1623   NI        0.401116    0.347976    0.309601     0.004307
CU1624   CU        0.432702    0.317329    0.311690     0.006663
CU1625   CU        0.433226    0.348162    0.343366     0.006663
CU1626   CU        0.463430    0.316192    0.344569     0.006663
CU1627   CU        0.463277    0.347794    0.310492     0.006663
CU1628   CU        0.495414    0.315132    0.313246     0.006663
CU1629   CU        0.495634    0.348561    0.345789     0.006663
NI1630   NI        0.527821    0.315062    0.347477     0.004307
NI1631   NI        0.523426    0.348833    0.312779     0.004307
CU1632   CU        0.558802    0.317467    0.313044     0.006663
CU1633   CU        0.557437    0.348041    0.345553     0.006663
NI1634   NI        0.588430    0.315242    0.345324     0.004307
NI1635   NI        0.589100    0.346358    0.312717     0.004307
CU1636   CU        0.620711    0.318069    0.309998     0.006663
NI1637   NI        0.619990    0.347919    0.345183     0.004307
NI1638   NI        0.652695    0.314281    0.342387     0.004307
NI1639   NI        0.650559    0.347715    0.310200     0.004307
CU1640   CU        0.680920    0.312690    0.309474     0.006663
NI1641   NI        0.680310    0.346553    0.342865     0.004307
NI1642   NI        0.730626    0.312855    0.338691     0.004307
NI1643   NI        0.734432    0.343735    0.305261     0.004307
CU1644   CU        0.760442    0.312195    0.307007     0.006663
CU1645   CU        0.760020    0.344057    0.341235     0.006663
NI1646   NI        0.788075    0.310931    0.339976     0.004307
NI1647   NI        0.791825    0.344242    0.304859     0.004307
CU1648   CU        0.818785    0.307931    0.310926     0.006663
CU1649   CU        0.816421    0.345029    0.340934     0.006663
NI1650   NI        0.013394    0.375445    0.343150     0.004307
NI1651   NI        0.012566    0.408146    0.312067     0.004307
NI1652   NI        0.044386    0.378419    0.312191     0.004307
CU1653   CU        0.040934    0.410866    0.343161     0.006663
NI1654   NI        0.072040    0.381930    0.344618     0.004307
NI1655   NI        0.070500    0.408673    0.305249     0.004307
NI1656   NI        0.102040    0.376462    0.307413     0.004307
NI1657   NI        0.105970    0.408393    0.347232     0.004307
NI1658   NI        0.141734    0.383504    0.346001     0.004307
NI1659   NI        0.132776    0.407567    0.302085     0.004307
NI1660   NI        0.175836    0.383433    0.314040     0.004307
NI1661   NI        0.175067    0.413183    0.346690     0.004307
NI1662   NI        0.207169    0.380058    0.343799     0.004307
NI1663   NI        0.208465    0.412800    0.314808     0.004307
CU1664   CU        0.240755    0.380637    0.313630     0.006663
CU1665   CU        0.240338    0.414008    0.344622     0.006663
CU1666   CU        0.274694    0.380370    0.342754     0.006663
NI1667   NI        0.272768    0.414875    0.313406     0.004307
CU1668   CU        0.307040    0.380262    0.311089     0.006663
CU1669   CU        0.304805    0.412115    0.345093     0.006663
CU1670   CU        0.337740    0.379698    0.343271     0.006663
NI1671   NI        0.336120    0.412201    0.312512     0.004307
CU1672   CU        0.368839    0.380374    0.310164     0.006663
CU1673   CU        0.371050    0.410437    0.343641     0.006663
CU1674   CU        0.400866    0.378102    0.344485     0.006663
CU1675   CU        0.400040    0.409015    0.310510     0.006663
CU1676   CU        0.433141    0.379690    0.310608     0.006663
CU1677   CU        0.430962    0.411252    0.342614     0.006663
CU1678   CU        0.463236    0.377287    0.344268     0.006663
CU1679   CU        0.463833    0.410247    0.310179     0.006663
CU1680   CU        0.495184    0.379282    0.312887     0.006663
CU1681   CU        0.493284    0.410215    0.343741     0.006663
NI1682   NI        0.526497    0.377864    0.345661     0.004307
CU1683   CU        0.524267    0.409489    0.310486     0.006663
CU1684   CU        0.556327    0.377734    0.311028     0.006663
CU1685   CU        0.557884    0.410556    0.344300     0.006663
CU1686   CU        0.587780    0.380957    0.344865     0.006663
NI1687   NI        0.591101    0.410681    0.310867     0.004307
CU1688   CU        0.619391    0.379636    0.311025     0.006663
CU1689   CU        0.620425    0.411729    0.343983     0.006663
NI1690   NI        0.649756    0.379434    0.345531     0.004307
CU1691   CU        0.650816    0.411282    0.311709     0.006663
NI1692   NI        0.680446    0.378855    0.308515     0.004307
NI1693   NI        0.695099    0.405849    0.341148     0.004307
NI1694   NI        0.729454    0.377674    0.341924     0.004307
NI1695   NI        0.731189    0.407061    0.308027     0.004307
NI1696   NI        0.761267    0.376142    0.308493     0.004307
NI1697   NI        0.760033    0.410374    0.341068     0.004307
CU1698   CU        0.790086    0.376083    0.342208     0.006663
NI1699   NI        0.788115    0.409338    0.304266     0.004307
NI1700   NI        0.817155    0.376662    0.304072     0.004307
NI1701   NI        0.819067    0.409514    0.339701     0.004307
NI1702   NI        0.846995    0.376092    0.338478     0.004307
CU1703   CU        0.846221    0.406158    0.304251     0.006663
NI1704   NI        0.006960    0.441034    0.344864     0.004307
NI1705   NI        0.019673    0.480596    0.302596     0.004307
NI1706   NI        0.035859    0.442408    0.312703     0.004307
CU1707   CU        0.037161    0.474412    0.342992     0.006663
NI1708   NI        0.073050    0.440159    0.339459     0.004307
NI1709   NI        0.064287    0.471819    0.307425     0.004307
CU1710   CU        0.108642    0.447314    0.303099     0.006663
CU1711   CU        0.100111    0.472488    0.337702     0.006663
NI1712   NI        0.139979    0.448751    0.348641     0.004307
NI1713   NI        0.135676    0.477107    0.313469     0.004307
NI1714   NI        0.177490    0.442678    0.314515     0.004307
CU1715   CU        0.176404    0.475010    0.344598     0.006663
NI1716   NI        0.207787    0.447093    0.344912     0.004307
NI1717   NI        0.208862    0.478425    0.314337     0.004307
NI1718   NI        0.237442    0.444671    0.312369     0.004307
CU1719   CU        0.241519    0.475152    0.345924     0.006663
CU1720   CU        0.271854    0.444697    0.344488     0.006663
CU1721   CU        0.271225    0.475207    0.310077     0.006663
NI1722   NI        0.303487    0.444650    0.313467     0.004307
NI1723   NI        0.303613    0.475804    0.347064     0.004307
CU1724   CU        0.335505    0.443634    0.344290     0.006663
CU1725   CU        0.338399    0.474047    0.311097     0.006663
CU1726   CU        0.367127    0.443828    0.311000     0.006663
CU1727   CU        0.368573    0.474527    0.343785     0.006663
CU1728   CU        0.400940    0.442034    0.344890     0.006663
CU1729   CU        0.401629    0.472938    0.309239     0.006663
CU1730   CU        0.432399    0.443374    0.308011     0.006663
CU1731   CU        0.430456    0.473555    0.344557     0.006663
CU1732   CU        0.462214    0.440378    0.342974     0.006663
CU1733   CU        0.462728    0.473905    0.310114     0.006663
CU1734   CU        0.493758    0.442527    0.310188     0.006663
NI1735   NI        0.492660    0.473841    0.345772     0.004307
CU1736   CU        0.525032    0.444265    0.343008     0.006663
NI1737   NI        0.524376    0.475285    0.310307     0.004307
CU1738   CU        0.556188    0.440140    0.310925     0.006663
CU1739   CU        0.556852    0.473537    0.342581     0.006663
CU1740   CU        0.590122    0.441930    0.342015     0.006663
CU1741   CU        0.586951    0.473867    0.310025     0.006663
CU1742   CU        0.619412    0.443576    0.311374     0.006663
CU1743   CU        0.619368    0.474526    0.342025     0.006663
NI1744   NI        0.650485    0.443334    0.343857     0.004307
CU1745   CU        0.650354    0.473605    0.311156     0.006663
CU1746   CU        0.681160    0.439770    0.312946     0.006663
NI1747   NI        0.682112    0.474104    0.344264     0.004307
NI1748   NI        0.730229    0.439886    0.340206     0.004307
NI1749   NI        0.712747    0.471809    0.313120     0.004307
NI1750   NI        0.757897    0.442234    0.307561     0.004307
NI1751   NI        0.757521    0.476583    0.339484     0.004307
CU1752   CU        0.787315    0.444583    0.340337     0.006663
CU1753   CU        0.787200    0.476592    0.305264     0.006663
NI1754   NI        0.815575    0.443835    0.304647     0.004307
NI1755   NI        0.817068    0.474904    0.340030     0.004307
NI1756   NI        0.845799    0.442903    0.337415     0.004307
CU1757   CU        0.846011    0.477240    0.305978     0.006663
NI1758   NI        0.007961    0.503062    0.343066     0.004307
NI1759   NI        0.047781    0.511136    0.299528     0.004307
NI1760   NI        0.049221    0.546149    0.336806     0.004307
NI1761   NI        0.065147    0.505853    0.340533     0.004307
NI1762   NI        0.075962    0.543649    0.301022     0.004307
CU1763   CU        0.107342    0.512228    0.297883     0.006663
CU1764   CU        0.106213    0.549085    0.336270     0.006663
NI1765   NI        0.147608    0.510392    0.345379     0.004307
NI1766   NI        0.135029    0.544892    0.303584     0.004307
CU1767   CU        0.176667    0.506528    0.314891     0.006663
NI1768   NI        0.179921    0.537254    0.345394     0.004307
NI1769   NI        0.209428    0.508138    0.344795     0.004307
CU1770   CU        0.208978    0.536498    0.311162     0.006663
NI1771   NI        0.239945    0.507152    0.312164     0.004307
CU1772   CU        0.239315    0.536409    0.346316     0.006663
CU1773   CU        0.273561    0.506337    0.347028     0.006663
NI1774   NI        0.272672    0.537176    0.311975     0.004307
NI1775   NI        0.306794    0.505431    0.310266     0.004307
NI1776   NI        0.304847    0.536240    0.345840     0.004307
CU1777   CU        0.339757    0.505367    0.344836     0.006663
CU1778   CU        0.337927    0.536130    0.312708     0.006663
CU1779   CU        0.368719    0.505218    0.309474     0.006663
CU1780   CU        0.368486    0.536081    0.344797     0.006663
CU1781   CU        0.399087    0.504083    0.344135     0.006663
CU1782   CU        0.400381    0.536767    0.312387     0.006663
CU1783   CU        0.429188    0.504169    0.311104     0.006663
CU1784   CU        0.431747    0.537070    0.342523     0.006663
CU1785   CU        0.461289    0.504944    0.344432     0.006663
CU1786   CU        0.463928    0.535856    0.310647     0.006663
CU1787   CU        0.493759    0.505341    0.310345     0.006663
CU1788   CU        0.491790    0.534318    0.344133     0.006663
CU1789   CU        0.525828    0.504598    0.342256     0.006663
CU1790   CU        0.523743    0.534808    0.311512     0.006663
NI1791   NI        0.557402    0.504606    0.310073     0.004307
CU1792   CU        0.555797    0.536909    0.343299     0.006663
NI1793   NI        0.588248    0.504717    0.344001     0.004307
CU1794   CU        0.586201    0.535457    0.313730     0.006663
NI1795   NI        0.619156    0.507116    0.311915     0.004307
NI1796   NI        0.619871    0.536596    0.346802     0.004307
CU1797   CU        0.652618    0.506095    0.345413     0.006663
NI1798   NI        0.650273    0.535030    0.314375     0.004307
NI1799   NI        0.682740    0.504794    0.313302     0.004307
NI1800   NI        0.681325    0.536428    0.346467     0.004307
CU1801   CU        0.714182    0.505324    0.347210     0.006663
NI1802   NI        0.710394    0.538259    0.312461     0.004307
NI1803   NI        0.757709    0.509563    0.305748     0.004307
NI1804   NI        0.763250    0.543334    0.339547     0.004307
NI1805   NI        0.788768    0.508530    0.340921     0.004307
CU1806   CU        0.787462    0.541446    0.303961     0.006663
NI1807   NI        0.817691    0.510130    0.303915     0.004307
CU1808   CU        0.819377    0.543700    0.338545     0.006663
NI1809   NI        0.845863    0.510910    0.342386     0.004307
NI1810   NI        0.046499    0.575650    0.301689     0.004307
NI1811   NI        0.046639    0.611020    0.337749     0.004307
NI1812   NI        0.075209    0.578629    0.339542     0.004307
NI1813   NI        0.076428    0.607896    0.303233     0.004307
CU1814   CU        0.105733    0.577654    0.302721     0.006663
CU1815   CU        0.106600    0.611926    0.337889     0.006663
NI1816   NI        0.135562    0.581504    0.334203     0.004307
CU1817   CU        0.136292    0.611810    0.302377     0.006663
CU1818   CU        0.165532    0.577983    0.304036     0.006663
NI1819   NI        0.168981    0.610373    0.336364     0.004307
NI1820   NI        0.210531    0.567201    0.343455     0.004307
NI1821   NI        0.208939    0.599173    0.311990     0.004307
NI1822   NI        0.243595    0.567733    0.309406     0.004307
NI1823   NI        0.241434    0.596378    0.345310     0.004307
CU1824   CU        0.272396    0.566953    0.345359     0.006663
CU1825   CU        0.274734    0.598242    0.313396     0.006663
CU1826   CU        0.308157    0.566080    0.313424     0.006663
CU1827   CU        0.305643    0.598656    0.343664     0.006663
CU1828   CU        0.336734    0.567937    0.346196     0.006663
NI1829   NI        0.337324    0.597790    0.312335     0.004307
CU1830   CU        0.368582    0.566549    0.312337     0.006663
NI1831   NI        0.368453    0.597507    0.346295     0.004307
CU1832   CU        0.401032    0.568995    0.345399     0.006663
CU1833   CU        0.399936    0.599409    0.314976     0.006663
NI1834   NI        0.434422    0.569735    0.312752     0.004307
CU1835   CU        0.432535    0.600601    0.346680     0.006663
CU1836   CU        0.462637    0.567694    0.347056     0.006663
CU1837   CU        0.464588    0.599479    0.313267     0.006663
CU1838   CU        0.493248    0.565785    0.313229     0.006663
CU1839   CU        0.495854    0.597988    0.344688     0.006663
NI1840   NI        0.525101    0.565983    0.344649     0.004307
CU1841   CU        0.525655    0.599359    0.314311     0.006663
CU1842   CU        0.557410    0.568605    0.313727     0.006663
CU1843   CU        0.554235    0.598030    0.347961     0.006663
NI1844   NI        0.589483    0.570385    0.345599     0.004307
NI1845   NI        0.587414    0.601720    0.313477     0.004307
NI1846   NI        0.617783    0.566683    0.314305     0.004307
CU1847   CU        0.619148    0.601388    0.347176     0.006663
NI1848   NI        0.651271    0.568317    0.347187     0.004307
NI1849   NI        0.660275    0.607964    0.301360     0.004307
NI1850   NI        0.681111    0.568884    0.312413     0.004307
NI1851   NI        0.681761    0.599475    0.347072     0.004307
NI1852   NI        0.711674    0.566772    0.346060     0.004307
NI1853   NI        0.729092    0.611977    0.304198     0.004307
NI1854   NI        0.762177    0.576059    0.303745     0.004307
NI1855   NI        0.759894    0.608723    0.338839     0.004307
NI1856   NI        0.790159    0.577062    0.341526     0.004307
NI1857   NI        0.789688    0.606599    0.307303     0.004307
CU1858   CU        0.816170    0.572642    0.303830     0.006663
CU1859   CU        0.817511    0.609123    0.342484     0.006663
NI1860   NI        0.076714    0.642678    0.338606     0.004307
CU1861   CU        0.077983    0.672466    0.301654     0.006663
NI1862   NI        0.106471    0.641351    0.305258     0.004307
NI1863   NI        0.109153    0.673246    0.336669     0.004307
NI1864   NI        0.138979    0.642220    0.338574     0.004307
CU1865   CU        0.138589    0.673191    0.305860     0.006663
CU1866   CU        0.167154    0.641212    0.302693     0.006663
NI1867   NI        0.168728    0.672553    0.338612     0.004307
NI1868   NI        0.206891    0.629669    0.345681     0.004307
NI1869   NI        0.199509    0.673943    0.303703     0.004307
NI1870   NI        0.243001    0.627886    0.312754     0.004307
NI1871   NI        0.244840    0.656831    0.346104     0.004307
NI1872   NI        0.274121    0.629574    0.347278     0.004307
NI1873   NI        0.276105    0.656649    0.314707     0.004307
NI1874   NI        0.307568    0.629751    0.313102     0.004307
NI1875   NI        0.309009    0.663106    0.347111     0.004307
NI1876   NI        0.335264    0.630441    0.346273     0.004307
NI1877   NI        0.339751    0.659765    0.314105     0.004307
CU1878   CU        0.368604    0.628578    0.315454     0.006663
CU1879   CU        0.369010    0.662639    0.345590     0.006663
NI1880   NI        0.402300    0.632078    0.344378     0.004307
NI1881   NI        0.400638    0.662377    0.311523     0.004307
CU1882   CU        0.431858    0.629818    0.313502     0.006663
CU1883   CU        0.431672    0.662669    0.344926     0.006663
CU1884   CU        0.462847    0.631801    0.346270     0.006663
NI1885   NI        0.463511    0.660866    0.313235     0.004307
CU1886   CU        0.493439    0.630396    0.312062     0.006663
NI1887   NI        0.493047    0.662316    0.344934     0.004307
CU1888   CU        0.523918    0.630292    0.346469     0.006663
NI1889   NI        0.532414    0.672098    0.301438     0.004307
NI1890   NI        0.563975    0.640658    0.301578     0.004307
NI1891   NI        0.554765    0.661782    0.344971     0.004307
NI1892   NI        0.588453    0.631664    0.344101     0.004307
NI1893   NI        0.596113    0.675459    0.303193     0.004307
NI1894   NI        0.621835    0.628172    0.311589     0.004307
NI1895   NI        0.619226    0.662007    0.344602     0.004307
NI1896   NI        0.650328    0.628493    0.347061     0.004307
NI1897   NI        0.662831    0.673992    0.302140     0.004307
CU1898   CU        0.694366    0.641546    0.306295     0.006663
NI1899   NI        0.697021    0.672687    0.337955     0.004307
NI1900   NI        0.727549    0.640824    0.338532     0.004307
NI1901   NI        0.723756    0.671277    0.305954     0.004307
CU1902   CU        0.758291    0.642937    0.306189     0.006663
NI1903   NI        0.757843    0.668680    0.342715     0.004307
NI1904   NI        0.791127    0.641589    0.342728     0.004307
NI1905   NI        0.786663    0.671861    0.307855     0.004307
NI1906   NI        0.111360    0.705273    0.304525     0.004307
CU1907   CU        0.110595    0.734468    0.336548     0.006663
NI1908   NI        0.142078    0.706512    0.335981     0.004307
CU1909   CU        0.140628    0.736888    0.305994     0.006663
NI1910   NI        0.170598    0.704781    0.303942     0.004307
NI1911   NI        0.172187    0.734987    0.338105     0.004307
CU1912   CU        0.202570    0.705125    0.337846     0.006663
NI1913   NI        0.199890    0.736981    0.304681     0.004307
CU1914   CU        0.232841    0.706487    0.304306     0.006663
NI1915   NI        0.231922    0.739777    0.339223     0.004307
NI1916   NI        0.263671    0.710393    0.341544     0.004307
NI1917   NI        0.266309    0.738434    0.306780     0.004307
CU1918   CU        0.310160    0.687725    0.311486     0.006663
NI1919   NI        0.296372    0.741655    0.341130     0.004307
NI1920   NI        0.338517    0.693682    0.343388     0.004307
NI1921   NI        0.347213    0.734426    0.313367     0.004307
NI1922   NI        0.370076    0.693183    0.312823     0.004307
NI1923   NI        0.370285    0.722083    0.345685     0.004307
CU1924   CU        0.401912    0.692703    0.343800     0.006663
NI1925   NI        0.399292    0.722513    0.308184     0.004307
CU1926   CU        0.431363    0.692320    0.308302     0.006663
NI1927   NI        0.429671    0.722891    0.343599     0.004307
NI1928   NI        0.461195    0.693332    0.347110     0.004307
NI1929   NI        0.463316    0.721017    0.312897     0.004307
CU1930   CU        0.501556    0.702797    0.302901     0.006663
NI1931   NI        0.493160    0.723772    0.345412     0.004307
NI1932   NI        0.523356    0.692657    0.345108     0.004307
NI1933   NI        0.533741    0.739442    0.302673     0.004307
NI1934   NI        0.564571    0.704746    0.303091     0.004307
NI1935   NI        0.563973    0.738763    0.339533     0.004307
NI1936   NI        0.597029    0.704487    0.335377     0.004307
NI1937   NI        0.595869    0.736330    0.306112     0.004307
NI1938   NI        0.628894    0.702206    0.302055     0.004307
NI1939   NI        0.629403    0.735865    0.340973     0.004307
NI1940   NI        0.662029    0.703536    0.336210     0.004307
NI1941   NI        0.660669    0.734271    0.308014     0.004307
NI1942   NI        0.693131    0.703670    0.306974     0.004307
NI1943   NI        0.692034    0.734914    0.338506     0.004307
NI1944   NI        0.725916    0.701631    0.342405     0.004307
NI1945   NI        0.723847    0.730785    0.307785     0.004307
NI1946   NI        0.756154    0.700849    0.310280     0.004307
NI1947   NI        0.755258    0.731986    0.343545     0.004307
NI1948   NI        0.140812    0.765063    0.340016     0.004307
NI1949   NI        0.170276    0.765393    0.306478     0.004307
NI1950   NI        0.200673    0.766023    0.339912     0.004307
NI1951   NI        0.205086    0.794657    0.304592     0.004307
CU1952   CU        0.236249    0.766624    0.305350     0.006663
NI1953   NI        0.233826    0.800244    0.337792     0.004307
NI1954   NI        0.264209    0.768933    0.340413     0.004307
CU1955   CU        0.268543    0.796298    0.305749     0.006663
CU1956   CU        0.300654    0.767223    0.305297     0.006663
NI1957   NI        0.300982    0.798899    0.339539     0.004307
NI1958   NI        0.331110    0.768131    0.339878     0.004307
CU1959   CU        0.331625    0.797412    0.303897     0.006663
NI1960   NI        0.363518    0.771559    0.302131     0.004307
NI1961   NI        0.365307    0.798016    0.338839     0.004307
NI1962   NI        0.398905    0.774049    0.340078     0.004307
NI1963   NI        0.396568    0.799779    0.304533     0.004307
NI1964   NI        0.432104    0.770485    0.305884     0.004307
NI1965   NI        0.433056    0.800056    0.340185     0.004307
NI1966   NI        0.463424    0.771893    0.340859     0.004307
NI1967   NI        0.468285    0.797988    0.303251     0.004307
NI1968   NI        0.500079    0.769030    0.301953     0.004307
NI1969   NI        0.497818    0.798926    0.336420     0.004307
NI1970   NI        0.532595    0.769720    0.337205     0.004307
NI1971   NI        0.530029    0.799271    0.303429     0.004307
NI1972   NI        0.564998    0.768206    0.305301     0.004307
CU1973   CU        0.562793    0.797606    0.339162     0.006663
CU1974   CU        0.595470    0.767837    0.339719     0.006663
NI1975   NI        0.596320    0.798839    0.306073     0.004307
NI1976   NI        0.627794    0.767265    0.306689     0.004307
NI1977   NI        0.629269    0.796491    0.341524     0.004307
CU1978   CU        0.663501    0.765348    0.342840     0.006663
NI1979   NI        0.660403    0.796014    0.308633     0.004307
NI1980   NI        0.692787    0.764103    0.306148     0.004307
NI1981   NI        0.725191    0.761962    0.339120     0.004307
NI1982   NI        0.269310    0.826553    0.337344     0.004307
NI1983   NI        0.299601    0.824520    0.304331     0.004307
NI1984   NI        0.334204    0.826348    0.340406     0.004307
NI1985   NI        0.364506    0.827180    0.302180     0.004307
NI1986   NI        0.366083    0.855447    0.336830     0.004307
NI1987   NI        0.400029    0.827675    0.337898     0.004307
NI1988   NI        0.399516    0.855160    0.302268     0.004307
CU1989   CU        0.431727    0.828377    0.300573     0.006663
CU1990   CU        0.430712    0.855241    0.336552     0.006663
NI1991   NI        0.463453    0.828480    0.338798     0.004307
CU1992   CU        0.465278    0.856355    0.303353     0.006663
NI1993   NI        0.497062    0.826882    0.302694     0.004307
NI1994   NI        0.495884    0.856654    0.339828     0.004307
NI1995   NI        0.529066    0.828683    0.337494     0.004307
NI1996   NI        0.561164    0.828346    0.304601     0.004307
NI1997   NI        0.597238    0.826541    0.343444     0.004307
NI1998   NI        0.299123    0.026801    0.407546     0.004307
NI1999   NI        0.332037    0.029494    0.372920     0.004307
NI2000   NI        0.359837    0.028917    0.413526     0.004307
NI2001   NI        0.401496    0.026409    0.372698     0.004307
NI2002   NI        0.433372    0.026331    0.409293     0.004307
NI2003   NI        0.465769    0.027024    0.374167     0.004307
NI2004   NI        0.496178    0.027469    0.408478     0.004307
NI2005   NI        0.527449    0.000625    0.333721     0.004307
NI2006   NI        0.563454    0.028328    0.412735     0.004307
NI2007   NI        0.170971    0.090186    0.406793     0.004307
NI2008   NI        0.203782    0.088802    0.376461     0.004307
NI2009   NI        0.235029    0.057322    0.377022     0.004307
NI2010   NI        0.233361    0.089532    0.409104     0.004307
NI2011   NI        0.266570    0.058389    0.411114     0.004307
NI2012   NI        0.265859    0.086953    0.375878     0.004307
NI2013   NI        0.299368    0.058369    0.376403     0.004307
NI2014   NI        0.298748    0.087666    0.408932     0.004307
CU2015   CU        0.330575    0.059211    0.412834     0.006663
NI2016   NI        0.329142    0.086199    0.375667     0.004307
CU2017   CU        0.366508    0.057456    0.374630     0.006663
NI2018   NI        0.368729    0.081036    0.412910     0.004307
NI2019   NI        0.398345    0.052467    0.407138     0.004307
CU2020   CU        0.400494    0.084509    0.378036     0.006663
CU2021   CU        0.432730    0.056118    0.376028     0.006663
CU2022   CU        0.431220    0.084756    0.411337     0.006663
CU2023   CU        0.463430    0.057013    0.409938     0.006663
NI2024   NI        0.464614    0.085847    0.374343     0.004307
NI2025   NI        0.498181    0.057254    0.374196     0.004307
NI2026   NI        0.496397    0.084918    0.409669     0.004307
NI2027   NI        0.529039    0.054171    0.410251     0.004307
NI2028   NI        0.531148    0.083073    0.373971     0.004307
NI2029   NI        0.564179    0.056769    0.375430     0.004307
CU2030   CU        0.563191    0.081080    0.410601     0.006663
CU2031   CU        0.596876    0.052204    0.404536     0.006663
NI2032   NI        0.597634    0.086321    0.371743     0.004307
CU2033   CU        0.628442    0.055313    0.371505     0.006663
NI2034   NI        0.626728    0.085306    0.404290     0.004307
CU2035   CU        0.660510    0.088744    0.374650     0.006663
NI2036   NI        0.664884    0.075189    0.420010     0.004307
CU2037   CU        0.109825    0.149969    0.409517     0.006663
NI2038   NI        0.140111    0.119434    0.410105     0.004307
NI2039   NI        0.137700    0.148904    0.373392     0.004307
NI2040   NI        0.170144    0.119935    0.375054     0.004307
NI2041   NI        0.168847    0.148419    0.409417     0.004307
NI2042   NI        0.201238    0.119492    0.408493     0.004307
NI2043   NI        0.203165    0.148888    0.374297     0.004307
CU2044   CU        0.233730    0.118183    0.372610     0.006663
NI2045   NI        0.235373    0.146520    0.406051     0.004307
CU2046   CU        0.266240    0.116730    0.405212     0.006663
NI2047   NI        0.265165    0.149530    0.371521     0.004307
NI2048   NI        0.296765    0.115882    0.372194     0.004307
NI2049   NI        0.308585    0.159655    0.413148     0.004307
NI2050   NI        0.335651    0.108900    0.412952     0.004307
CU2051   CU        0.337848    0.159401    0.378029     0.006663
NI2052   NI        0.367146    0.110197    0.376358     0.004307
NI2053   NI        0.363517    0.141417    0.408898     0.004307
CU2054   CU        0.398039    0.111868    0.412280     0.006663
NI2055   NI        0.397081    0.142529    0.376497     0.004307
NI2056   NI        0.431325    0.113114    0.375759     0.004307
NI2057   NI        0.423679    0.146501    0.410829     0.004307
NI2058   NI        0.463791    0.115787    0.410299     0.004307
NI2059   NI        0.470774    0.142499    0.374132     0.004307
CU2060   CU        0.498936    0.110760    0.371765     0.006663
NI2061   NI        0.494967    0.163700    0.411495     0.004307
NI2062   NI        0.530318    0.109803    0.410331     0.004307
NI2063   NI        0.529592    0.163766    0.377101     0.004307
NI2064   NI        0.563446    0.113406    0.370904     0.004307
NI2065   NI        0.570958    0.152383    0.406903     0.004307
NI2066   NI        0.604771    0.122805    0.412662     0.004307
CU2067   CU        0.604463    0.151098    0.378606     0.006663
NI2068   NI        0.628338    0.115454    0.370797     0.004307
NI2069   NI        0.635376    0.154394    0.410247     0.004307
NI2070   NI        0.664122    0.116698    0.412047     0.004307
NI2071   NI        0.669534    0.165705    0.379050     0.004307
NI2072   NI        0.692579    0.119389    0.375242     0.004307
NI2073   NI        0.696784    0.148952    0.411406     0.004307
NI2074   NI        0.726983    0.119464    0.411147     0.004307
NI2075   NI        0.726402    0.148754    0.376494     0.004307
CU2076   CU        0.757398    0.154596    0.409120     0.006663
CU2077   CU        0.077928    0.181237    0.409348     0.006663
NI2078   NI        0.077097    0.212775    0.375142     0.004307
CU2079   CU        0.108642    0.183478    0.375570     0.006663
NI2080   NI        0.106857    0.213628    0.409321     0.004307
NI2081   NI        0.139734    0.181246    0.409338     0.004307
CU2082   CU        0.140482    0.214196    0.375398     0.006663
NI2083   NI        0.168567    0.180662    0.374556     0.004307
CU2084   CU        0.170845    0.211215    0.411653     0.006663
CU2085   CU        0.200035    0.179565    0.409476     0.006663
NI2086   NI        0.201295    0.208389    0.373474     0.004307
CU2087   CU        0.235537    0.179841    0.370247     0.006663
CU2088   CU        0.243357    0.222498    0.412810     0.006663
NI2089   NI        0.275314    0.192437    0.412587     0.004307
NI2090   NI        0.274618    0.225398    0.379391     0.004307
NI2091   NI        0.305159    0.190789    0.379858     0.004307
NI2092   NI        0.304234    0.222999    0.412381     0.004307
NI2093   NI        0.334214    0.194339    0.412838     0.004307
NI2094   NI        0.335658    0.223252    0.378113     0.004307
NI2095   NI        0.366408    0.192648    0.378766     0.004307
CU2096   CU        0.368158    0.226949    0.412175     0.006663
NI2097   NI        0.398744    0.179685    0.428759     0.004307
NI2098   NI        0.396252    0.225366    0.376584     0.004307
NI2099   NI        0.408082    0.183099    0.385076     0.004307
CU2100   CU        0.433590    0.223349    0.413378     0.006663
NI2101   NI        0.463459    0.193192    0.414157     0.004307
CU2102   CU        0.463349    0.223805    0.376225     0.006663
CU2103   CU        0.496304    0.193394    0.381961     0.006663
CU2104   CU        0.496508    0.222008    0.413080     0.006663
NI2105   NI        0.528902    0.191050    0.411657     0.004307
CU2106   CU        0.529293    0.222849    0.379990     0.006663
NI2107   NI        0.563214    0.191903    0.378797     0.004307
NI2108   NI        0.559361    0.223467    0.409750     0.004307
CU2109   CU        0.597645    0.184261    0.407215     0.006663
NI2110   NI        0.592405    0.222883    0.379571     0.004307
NI2111   NI        0.629669    0.187686    0.376151     0.004307
NI2112   NI        0.620826    0.219160    0.413289     0.004307
NI2113   NI        0.658004    0.193250    0.412391     0.004307
NI2114   NI        0.654741    0.223289    0.378826     0.004307
CU2115   CU        0.691587    0.200419    0.382836     0.006663
NI2116   NI        0.691365    0.216508    0.425307     0.004307
NI2117   NI        0.726014    0.186474    0.408623     0.004307
NI2118   NI        0.728490    0.217241    0.375382     0.004307
NI2119   NI        0.757605    0.182805    0.374143     0.004307
CU2120   CU        0.755936    0.215713    0.409431     0.006663
NI2121   NI        0.786557    0.186557    0.409312     0.004307
NI2122   NI        0.787729    0.213499    0.375281     0.004307
NI2123   NI        0.044918    0.242241    0.371349     0.004307
NI2124   NI        0.048835    0.282588    0.414257     0.004307
NI2125   NI        0.077443    0.245006    0.410929     0.004307
NI2126   NI        0.073419    0.277188    0.373531     0.004307
NI2127   NI        0.106100    0.245688    0.376570     0.004307
NI2128   NI        0.097008    0.281098    0.409124     0.004307
CU2129   CU        0.138544    0.240960    0.411612     0.006663
NI2130   NI        0.130682    0.278947    0.376611     0.004307
NI2131   NI        0.162330    0.250672    0.373086     0.004307
CU2132   CU        0.176229    0.287193    0.413857     0.006663
NI2133   NI        0.210182    0.257168    0.410646     0.004307
CU2134   CU        0.209524    0.285749    0.378947     0.006663
NI2135   NI        0.240971    0.257755    0.378065     0.004307
CU2136   CU        0.241022    0.286467    0.413342     0.006663
CU2137   CU        0.271576    0.256268    0.411249     0.006663
CU2138   CU        0.270817    0.287058    0.377535     0.006663
CU2139   CU        0.305639    0.256612    0.375886     0.006663
CU2140   CU        0.304297    0.286274    0.411329     0.006663
CU2141   CU        0.334800    0.256641    0.410500     0.006663
NI2142   NI        0.338000    0.287161    0.380356     0.004307
CU2143   CU        0.366616    0.254143    0.378076     0.006663
CU2144   CU        0.369559    0.285489    0.412757     0.006663
CU2145   CU        0.402873    0.253805    0.412356     0.006663
NI2146   NI        0.399872    0.284644    0.380524     0.004307
CU2147   CU        0.432413    0.252943    0.376840     0.006663
CU2148   CU        0.433805    0.284904    0.412708     0.006663
NI2149   NI        0.464645    0.253375    0.410614     0.004307
CU2150   CU        0.464433    0.286076    0.378556     0.006663
CU2151   CU        0.495935    0.252663    0.377670     0.006663
NI2152   NI        0.493652    0.284427    0.409733     0.004307
CU2153   CU        0.525898    0.255150    0.412202     0.006663
CU2154   CU        0.527594    0.285878    0.378728     0.006663
CU2155   CU        0.558250    0.254121    0.378449     0.006663
CU2156   CU        0.560001    0.282881    0.413692     0.006663
CU2157   CU        0.590695    0.253566    0.410899     0.006663
CU2158   CU        0.589353    0.283456    0.379316     0.006663
CU2159   CU        0.622962    0.253948    0.379121     0.006663
CU2160   CU        0.621418    0.287466    0.411762     0.006663
NI2161   NI        0.650028    0.254443    0.411977     0.004307
NI2162   NI        0.653504    0.286293    0.378900     0.004307
NI2163   NI        0.698470    0.247332    0.374301     0.004307
NI2164   NI        0.695963    0.279782    0.408719     0.004307
NI2165   NI        0.727685    0.247013    0.409218     0.004307
NI2166   NI        0.728201    0.278666    0.376473     0.004307
NI2167   NI        0.758656    0.246588    0.375342     0.004307
CU2168   CU        0.758281    0.279718    0.409001     0.006663
CU2169   CU        0.788564    0.247608    0.408323     0.006663
NI2170   NI        0.787171    0.278663    0.376228     0.004307
NI2171   NI        0.817618    0.247182    0.376095     0.004307
NI2172   NI        0.817174    0.280627    0.408901     0.004307
NI2173   NI        0.013625    0.314224    0.407966     0.004307
NI2174   NI        0.014285    0.343105    0.374294     0.004307
NI2175   NI        0.046016    0.309924    0.374087     0.004307
NI2176   NI        0.042917    0.346528    0.408426     0.004307
CU2177   CU        0.072814    0.316345    0.409229     0.006663
CU2178   CU        0.073248    0.344877    0.373727     0.006663
CU2179   CU        0.099304    0.309251    0.372751     0.006663
NI2180   NI        0.101065    0.347411    0.411446     0.004307
CU2181   CU        0.144180    0.318082    0.412519     0.006663
NI2182   NI        0.140876    0.350485    0.375804     0.004307
NI2183   NI        0.175760    0.314570    0.379761     0.004307
NI2184   NI        0.177757    0.346920    0.410302     0.004307
NI2185   NI        0.209104    0.318447    0.407972     0.004307
CU2186   CU        0.205497    0.347950    0.376259     0.006663
CU2187   CU        0.239243    0.319217    0.378015     0.006663
CU2188   CU        0.241049    0.352409    0.408121     0.006663
CU2189   CU        0.272862    0.318393    0.409903     0.006663
CU2190   CU        0.272112    0.349930    0.378298     0.006663
NI2191   NI        0.305035    0.317961    0.379203     0.004307
CU2192   CU        0.304314    0.351815    0.411927     0.006663
CU2193   CU        0.337916    0.319393    0.412038     0.006663
CU2194   CU        0.337438    0.351176    0.380444     0.006663
CU2195   CU        0.366990    0.319560    0.378352     0.006663
CU2196   CU        0.371729    0.350538    0.413267     0.006663
CU2197   CU        0.399481    0.317938    0.412671     0.006663
CU2198   CU        0.400107    0.348423    0.376853     0.006663
CU2199   CU        0.431023    0.316587    0.377267     0.006663
CU2200   CU        0.431951    0.347940    0.411276     0.006663
CU2201   CU        0.464481    0.315008    0.410876     0.006663
CU2202   CU        0.463541    0.347180    0.377642     0.006663
CU2203   CU        0.494899    0.317076    0.378489     0.006663
CU2204   CU        0.494114    0.347390    0.411259     0.006663
CU2205   CU        0.525135    0.314136    0.412629     0.006663
CU2206   CU        0.525264    0.345835    0.379617     0.006663
CU2207   CU        0.558725    0.317496    0.378218     0.006663
CU2208   CU        0.558545    0.348038    0.411484     0.006663
CU2209   CU        0.588475    0.318164    0.412096     0.006663
CU2210   CU        0.590800    0.349568    0.377171     0.006663
CU2211   CU        0.618963    0.317301    0.376255     0.006663
CU2212   CU        0.617689    0.348650    0.410564     0.006663
NI2213   NI        0.663564    0.313019    0.409249     0.004307
CU2214   CU        0.650591    0.349300    0.379194     0.006663
NI2215   NI        0.698113    0.311742    0.376334     0.004307
NI2216   NI        0.696974    0.343545    0.409549     0.004307
CU2217   CU        0.729776    0.312782    0.408452     0.006663
NI2218   NI        0.727797    0.346189    0.375527     0.004307
NI2219   NI        0.758521    0.312459    0.373993     0.004307
CU2220   CU        0.758540    0.344960    0.411438     0.006663
NI2221   NI        0.786673    0.311227    0.408495     0.004307
CU2222   CU        0.787947    0.344548    0.376796     0.006663
NI2223   NI        0.816194    0.312718    0.377280     0.004307
CU2224   CU        0.816163    0.346367    0.409189     0.006663
NI2225   NI        0.844887    0.312354    0.409906     0.004307
NI2226   NI        0.846606    0.343460    0.374694     0.004307
NI2227   NI        0.012612    0.377801    0.408989     0.004307
NI2228   NI        0.011036    0.410868    0.374453     0.004307
CU2229   CU        0.041625    0.378512    0.375342     0.006663
NI2230   NI        0.042043    0.409420    0.409250     0.004307
CU2231   CU        0.072483    0.377733    0.408037     0.006663
NI2232   NI        0.072603    0.411104    0.375579     0.004307
NI2233   NI        0.103451    0.373548    0.374718     0.004307
NI2234   NI        0.099915    0.409439    0.410224     0.004307
NI2235   NI        0.131000    0.378928    0.409134     0.004307
NI2236   NI        0.139849    0.412817    0.378288     0.004307
CU2237   CU        0.174606    0.379469    0.377370     0.006663
CU2238   CU        0.178869    0.412103    0.408496     0.006663
NI2239   NI        0.206930    0.379545    0.409281     0.004307
CU2240   CU        0.209586    0.412684    0.377255     0.006663
NI2241   NI        0.239789    0.383568    0.376333     0.004307
CU2242   CU        0.241895    0.413420    0.410902     0.006663
CU2243   CU        0.274230    0.381589    0.409766     0.006663
CU2244   CU        0.273974    0.412707    0.377802     0.006663
CU2245   CU        0.307846    0.380566    0.376302     0.006663
CU2246   CU        0.304258    0.411904    0.410269     0.006663
CU2247   CU        0.339310    0.380734    0.412712     0.006663
CU2248   CU        0.339167    0.414517    0.378215     0.006663
CU2249   CU        0.368684    0.380611    0.378821     0.006663
CU2250   CU        0.371480    0.410357    0.411876     0.006663
CU2251   CU        0.402508    0.378913    0.414031     0.006663
CU2252   CU        0.400974    0.410057    0.378778     0.006663
CU2253   CU        0.433615    0.378892    0.376317     0.006663
CU2254   CU        0.432605    0.409708    0.412259     0.006663
CU2255   CU        0.463096    0.380188    0.408560     0.006663
CU2256   CU        0.463709    0.412100    0.376596     0.006663
CU2257   CU        0.495126    0.379513    0.378059     0.006663
CU2258   CU        0.492820    0.412178    0.408934     0.006663
CU2259   CU        0.523744    0.381984    0.410839     0.006663
CU2260   CU        0.526334    0.412863    0.375207     0.006663
CU2261   CU        0.556261    0.379707    0.377255     0.006663
CU2262   CU        0.556994    0.412005    0.412992     0.006663
CU2263   CU        0.588459    0.382068    0.409233     0.006663
CU2264   CU        0.589035    0.411926    0.376322     0.006663
CU2265   CU        0.619132    0.380273    0.377758     0.006663
NI2266   NI        0.620176    0.412169    0.410630     0.004307
CU2267   CU        0.649470    0.380692    0.411644     0.006663
CU2268   CU        0.650883    0.412101    0.377497     0.006663
NI2269   NI        0.699860    0.379664    0.376958     0.004307
NI2270   NI        0.678948    0.409469    0.411678     0.004307
NI2271   NI        0.728524    0.376560    0.410671     0.004307
NI2272   NI        0.730000    0.410031    0.374874     0.004307
NI2273   NI        0.758176    0.376082    0.375150     0.004307
NI2274   NI        0.758112    0.411256    0.410355     0.004307
NI2275   NI        0.787078    0.377598    0.406339     0.004307
CU2276   CU        0.788411    0.410302    0.373035     0.006663
NI2277   NI        0.818643    0.377910    0.373723     0.004307
CU2278   CU        0.817747    0.408781    0.406168     0.006663
NI2279   NI        0.846920    0.376534    0.411231     0.004307
NI2280   NI        0.847306    0.412007    0.371201     0.004307
NI2281   NI        0.011529    0.441334    0.410083     0.004307
NI2282   NI        0.010635    0.473015    0.376714     0.004307
NI2283   NI        0.041329    0.443116    0.376900     0.004307
NI2284   NI        0.039533    0.473157    0.410305     0.004307
CU2285   CU        0.071211    0.441371    0.409167     0.006663
NI2286   NI        0.071261    0.473692    0.373526     0.004307
NI2287   NI        0.101586    0.444331    0.373981     0.004307
NI2288   NI        0.097516    0.475070    0.408671     0.004307
NI2289   NI        0.149102    0.442945    0.412005     0.004307
NI2290   NI        0.149896    0.476070    0.380042     0.004307
NI2291   NI        0.176505    0.444423    0.376368     0.004307
CU2292   CU        0.179488    0.476255    0.409679     0.006663
CU2293   CU        0.209932    0.445506    0.408003     0.006663
CU2294   CU        0.208813    0.477401    0.378076     0.006663
CU2295   CU        0.241301    0.444678    0.377754     0.006663
CU2296   CU        0.241565    0.474439    0.410568     0.006663
CU2297   CU        0.273439    0.443004    0.411614     0.006663
NI2298   NI        0.272750    0.471830    0.379728     0.004307
CU2299   CU        0.306714    0.443706    0.378963     0.006663
NI2300   NI        0.307042    0.474598    0.412667     0.004307
CU2301   CU        0.339078    0.442522    0.413293     0.006663
CU2302   CU        0.338603    0.473945    0.377471     0.006663
CU2303   CU        0.371334    0.441022    0.378229     0.006663
CU2304   CU        0.369033    0.473559    0.409611     0.006663
CU2305   CU        0.401263    0.441768    0.413762     0.006663
CU2306   CU        0.399128    0.474301    0.375554     0.006663
CU2307   CU        0.432748    0.443210    0.376220     0.006663
CU2308   CU        0.429768    0.472441    0.412335     0.006663
CU2309   CU        0.461641    0.442412    0.410995     0.006663
CU2310   CU        0.462017    0.475090    0.377309     0.006663
CU2311   CU        0.494586    0.445379    0.377070     0.006663
CU2312   CU        0.495249    0.474200    0.410973     0.006663
CU2313   CU        0.525752    0.443717    0.409140     0.006663
CU2314   CU        0.527441    0.476033    0.376992     0.006663
CU2315   CU        0.558209    0.443115    0.374020     0.006663
CU2316   CU        0.558784    0.474715    0.411137     0.006663
CU2317   CU        0.587908    0.442921    0.410269     0.006663
CU2318   CU        0.589578    0.474291    0.375729     0.006663
CU2319   CU        0.621021    0.442685    0.375622     0.006663
CU2320   CU        0.619562    0.476586    0.409490     0.006663
CU2321   CU        0.650997    0.444044    0.410621     0.006663
CU2322   CU        0.651164    0.474491    0.377469     0.006663
NI2323   NI        0.680230    0.442873    0.377033     0.004307
CU2324   CU        0.682009    0.473815    0.412368     0.006663
NI2325   NI        0.729368    0.439896    0.407486     0.004307
NI2326   NI        0.711914    0.473804    0.381508     0.004307
NI2327   NI        0.760447    0.442056    0.373868     0.004307
CU2328   CU        0.762119    0.474068    0.411745     0.006663
NI2329   NI        0.791540    0.443138    0.410527     0.004307
NI2330   NI        0.789725    0.474652    0.376295     0.004307
CU2331   CU        0.816360    0.440446    0.372210     0.006663
CU2332   CU        0.820983    0.473571    0.410404     0.006663
NI2333   NI        0.847215    0.439448    0.405576     0.004307
NI2334   NI        0.848263    0.475857    0.372442     0.004307
NI2335   NI        0.009198    0.503057    0.413005     0.004307
NI2336   NI        0.003392    0.533031    0.381984     0.004307
CU2337   CU        0.038273    0.503523    0.377520     0.006663
NI2338   NI        0.034223    0.536284    0.413425     0.004307
NI2339   NI        0.066291    0.507201    0.412373     0.004307
NI2340   NI        0.075840    0.547338    0.373093     0.004307
NI2341   NI        0.107276    0.521648    0.373807     0.004307
NI2342   NI        0.116748    0.538159    0.416291     0.004307
NI2343   NI        0.149010    0.506714    0.410772     0.004307
CU2344   CU        0.145828    0.539509    0.379181     0.006663
NI2345   NI        0.177412    0.507258    0.378580     0.004307
CU2346   CU        0.175931    0.539679    0.411338     0.006663
CU2347   CU        0.210646    0.504932    0.411914     0.006663
CU2348   CU        0.209350    0.537704    0.379719     0.006663
NI2349   NI        0.241189    0.504890    0.379049     0.004307
CU2350   CU        0.240940    0.537279    0.409890     0.006663
CU2351   CU        0.272378    0.507183    0.409150     0.006663
CU2352   CU        0.272013    0.537727    0.378834     0.006663
CU2353   CU        0.305857    0.504807    0.379814     0.006663
CU2354   CU        0.303992    0.537052    0.411155     0.006663
CU2355   CU        0.336782    0.506049    0.411101     0.006663
CU2356   CU        0.339175    0.537370    0.378189     0.006663
CU2357   CU        0.369540    0.506622    0.377360     0.006663
CU2358   CU        0.368563    0.536592    0.411003     0.006663
CU2359   CU        0.399816    0.505423    0.409872     0.006663
CU2360   CU        0.401043    0.537452    0.377258     0.006663
CU2361   CU        0.431794    0.505261    0.377646     0.006663
NI2362   NI        0.428612    0.536804    0.411282     0.004307
CU2363   CU        0.459014    0.505329    0.411159     0.006663
CU2364   CU        0.461667    0.536422    0.376276     0.006663
CU2365   CU        0.493793    0.505330    0.376763     0.006663
CU2366   CU        0.493396    0.534545    0.409845     0.006663
CU2367   CU        0.526076    0.504274    0.410315     0.006663
CU2368   CU        0.526121    0.535751    0.377129     0.006663
CU2369   CU        0.558303    0.505371    0.377273     0.006663
CU2370   CU        0.555145    0.535715    0.412053     0.006663
CU2371   CU        0.588923    0.506150    0.412820     0.006663
NI2372   NI        0.588212    0.538845    0.377934     0.004307
NI2373   NI        0.621116    0.504467    0.377270     0.004307
CU2374   CU        0.620107    0.535205    0.411971     0.006663
CU2375   CU        0.651555    0.505070    0.410206     0.006663
CU2376   CU        0.651244    0.536551    0.379539     0.006663
NI2377   NI        0.682346    0.504431    0.378657     0.004307
NI2378   NI        0.680581    0.537826    0.411448     0.004307
CU2379   CU        0.711501    0.505363    0.415153     0.006663
NI2380   NI        0.713424    0.535355    0.382221     0.004307
NI2381   NI        0.742778    0.505661    0.381617     0.004307
CU2382   CU        0.745026    0.541837    0.409872     0.006663
NI2383   NI        0.791566    0.505477    0.410028     0.004307
NI2384   NI        0.794891    0.541326    0.373355     0.004307
NI2385   NI        0.816549    0.505210    0.375799     0.004307
NI2386   NI        0.817145    0.543272    0.411877     0.004307
CU2387   CU        0.843815    0.512586    0.410553     0.006663
NI2388   NI        0.842055    0.540546    0.376639     0.004307
NI2389   NI        0.000625    0.567144    0.415132     0.004307
NI2390   NI        0.047695    0.578889    0.372153     0.004307
NI2391   NI        0.049236    0.611899    0.407571     0.004307
NI2392   NI        0.077395    0.580903    0.405922     0.004307
NI2393   NI        0.077348    0.611442    0.373439     0.004307
NI2394   NI        0.106398    0.581087    0.370209     0.004307
NI2395   NI        0.107373    0.611215    0.402789     0.004307
CU2396   CU        0.146301    0.570170    0.415908     0.006663
NI2397   NI        0.136865    0.611151    0.370012     0.004307
NI2398   NI        0.178041    0.570030    0.379247     0.004307
CU2399   CU        0.179215    0.600912    0.412702     0.006663
NI2400   NI        0.210192    0.569492    0.413568     0.004307
NI2401   NI        0.212159    0.600843    0.379533     0.004307
CU2402   CU        0.239867    0.568388    0.378679     0.006663
NI2403   NI        0.241508    0.599617    0.413283     0.004307
CU2404   CU        0.272840    0.568964    0.411954     0.006663
NI2405   NI        0.272618    0.598965    0.380036     0.004307
CU2406   CU        0.304844    0.569380    0.378879     0.006663
CU2407   CU        0.304408    0.600418    0.412656     0.006663
NI2408   NI        0.338446    0.568989    0.411731     0.004307
CU2409   CU        0.337745    0.598393    0.378185     0.006663
CU2410   CU        0.368802    0.566653    0.379146     0.006663
CU2411   CU        0.367975    0.600253    0.411008     0.006663
CU2412   CU        0.399431    0.569493    0.412667     0.006663
NI2413   NI        0.402208    0.601266    0.378079     0.004307
CU2414   CU        0.429393    0.567839    0.378374     0.006663
CU2415   CU        0.433763    0.599500    0.409761     0.006663
CU2416   CU        0.464510    0.567668    0.410320     0.006663
CU2417   CU        0.464148    0.599954    0.377068     0.006663
CU2418   CU        0.494776    0.565248    0.378895     0.006663
CU2419   CU        0.495650    0.597848    0.411261     0.006663
CU2420   CU        0.526350    0.566570    0.414209     0.006663
CU2421   CU        0.523493    0.599166    0.379068     0.006663
CU2422   CU        0.556267    0.566843    0.378027     0.006663
CU2423   CU        0.557012    0.600017    0.415366     0.006663
CU2424   CU        0.589461    0.566574    0.416364     0.006663
NI2425   NI        0.587041    0.601464    0.379605     0.004307
CU2426   CU        0.622282    0.570075    0.380614     0.006663
CU2427   CU        0.618521    0.598555    0.414954     0.006663
CU2428   CU        0.649937    0.570023    0.414592     0.006663
NI2429   NI        0.652441    0.599709    0.382773     0.004307
NI2430   NI        0.681787    0.567371    0.380358     0.004307
CU2431   CU        0.681453    0.601808    0.415411     0.006663
CU2432   CU        0.712170    0.568030    0.414579     0.006663
NI2433   NI        0.710772    0.599486    0.382077     0.004307
CU2434   CU        0.763557    0.571116    0.373904     0.006663
NI2435   NI        0.759114    0.608428    0.411750     0.004307
NI2436   NI        0.789266    0.576207    0.409797     0.004307
NI2437   NI        0.788657    0.607610    0.376372     0.004307
CU2438   CU        0.817868    0.577002    0.375720     0.006663
NI2439   NI        0.817899    0.607058    0.411128     0.004307
NI2440   NI        0.847213    0.571070    0.413310     0.004307
NI2441   NI        0.045929    0.640728    0.372785     0.004307
NI2442   NI        0.078640    0.644708    0.406416     0.004307
NI2443   NI        0.079750    0.674731    0.370463     0.004307
NI2444   NI        0.106691    0.642867    0.373212     0.004307
NI2445   NI        0.108588    0.674299    0.402970     0.004307
NI2446   NI        0.137492    0.642688    0.402780     0.004307
NI2447   NI        0.137846    0.675193    0.370470     0.004307
CU2448   CU        0.169809    0.642685    0.370709     0.006663
NI2449   NI        0.168559    0.677017    0.408512     0.004307
NI2450   NI        0.212375    0.629687    0.412812     0.004307
NI2451   NI        0.198545    0.677349    0.374474     0.004307
NI2452   NI        0.243511    0.631174    0.380676     0.004307
NI2453   NI        0.241900    0.660989    0.412565     0.004307
NI2454   NI        0.274899    0.631178    0.412167     0.004307
NI2455   NI        0.274763    0.663245    0.378575     0.004307
NI2456   NI        0.304841    0.630783    0.378981     0.004307
CU2457   CU        0.303887    0.662216    0.412392     0.006663
NI2458   NI        0.336664    0.633007    0.409770     0.004307
NI2459   NI        0.338554    0.662071    0.378215     0.004307
CU2460   CU        0.367404    0.631393    0.378088     0.006663
CU2461   CU        0.368855    0.663365    0.410954     0.006663
CU2462   CU        0.399792    0.631933    0.414163     0.006663
CU2463   CU        0.399586    0.663466    0.379844     0.006663
CU2464   CU        0.432862    0.634146    0.378109     0.006663
NI2465   NI        0.431992    0.662380    0.411525     0.004307
CU2466   CU        0.462784    0.629978    0.412902     0.006663
CU2467   CU        0.463498    0.662794    0.379962     0.006663
CU2468   CU        0.494043    0.630168    0.380509     0.006663
NI2469   NI        0.494956    0.661328    0.412700     0.004307
CU2470   CU        0.526894    0.630454    0.410292     0.006663
CU2471   CU        0.524544    0.661799    0.376076     0.006663
NI2472   NI        0.556273    0.629880    0.376796     0.004307
CU2473   CU        0.557162    0.662148    0.412979     0.006663
CU2474   CU        0.585809    0.631659    0.413511     0.006663
CU2475   CU        0.590193    0.661975    0.379271     0.006663
CU2476   CU        0.620143    0.630174    0.379514     0.006663
NI2477   NI        0.619064    0.662173    0.413934     0.004307
NI2478   NI        0.650415    0.631433    0.414328     0.004307
NI2479   NI        0.648962    0.662288    0.378899     0.004307
NI2480   NI        0.682425    0.632193    0.379726     0.004307
CU2481   CU        0.679570    0.663883    0.413241     0.006663
NI2482   NI        0.729539    0.640685    0.408449     0.004307
NI2483   NI        0.724021    0.670009    0.373502     0.004307
NI2484   NI        0.755634    0.638772    0.375725     0.004307
NI2485   NI        0.756380    0.671247    0.409686     0.004307
NI2486   NI        0.788321    0.639174    0.411006     0.004307
NI2487   NI        0.787602    0.669313    0.377753     0.004307
NI2488   NI        0.819304    0.638682    0.378207     0.004307
NI2489   NI        0.078632    0.701422    0.408086     0.004307
NI2490   NI        0.107233    0.708248    0.374193     0.004307
NI2491   NI        0.105074    0.736542    0.411448     0.004307
NI2492   NI        0.137865    0.707147    0.407553     0.004307
NI2493   NI        0.138427    0.736755    0.374805     0.004307
NI2494   NI        0.168619    0.709052    0.375021     0.004307
NI2495   NI        0.168269    0.739022    0.407962     0.004307
NI2496   NI        0.198385    0.707524    0.408284     0.004307
NI2497   NI        0.201281    0.738582    0.375498     0.004307
CU2498   CU        0.229854    0.708271    0.371563     0.006663
NI2499   NI        0.233838    0.737434    0.411089     0.004307
CU2500   CU        0.274028    0.696004    0.408918     0.006663
CU2501   CU        0.265471    0.738512    0.372067     0.006663
CU2502   CU        0.299242    0.704079    0.370584     0.006663
NI2503   NI        0.307394    0.720688    0.409587     0.004307
CU2504   CU        0.340479    0.693373    0.411471     0.006663
NI2505   NI        0.338402    0.722726    0.379932     0.004307
NI2506   NI        0.368446    0.694397    0.377612     0.004307
NI2507   NI        0.370558    0.724224    0.409406     0.004307
NI2508   NI        0.401082    0.693952    0.410746     0.004307
NI2509   NI        0.396499    0.744367    0.373541     0.004307
NI2510   NI        0.432150    0.692368    0.379188     0.004307
NI2511   NI        0.430173    0.744091    0.410650     0.004307
CU2512   CU        0.463060    0.691686    0.412224     0.006663
NI2513   NI        0.463161    0.722891    0.382804     0.004307
NI2514   NI        0.494206    0.693424    0.378305     0.004307
NI2515   NI        0.497353    0.744498    0.412309     0.004307
NI2516   NI        0.527527    0.693165    0.410581     0.004307
NI2517   NI        0.528051    0.723451    0.377538     0.004307
NI2518   NI        0.558062    0.693220    0.378052     0.004307
CU2519   CU        0.558401    0.723273    0.411816     0.006663
CU2520   CU        0.589322    0.694174    0.412138     0.006663
NI2521   NI        0.586961    0.723907    0.376483     0.004307
NI2522   NI        0.619930    0.695075    0.377424     0.004307
NI2523   NI        0.618773    0.722635    0.413052     0.004307
NI2524   NI        0.650106    0.693693    0.411652     0.004307
CU2525   CU        0.651987    0.725717    0.385872     0.006663
NI2526   NI        0.678899    0.691890    0.376542     0.004307
NI2527   NI        0.697129    0.735984    0.411374     0.004307
NI2528   NI        0.725864    0.701865    0.409127     0.004307
CU2529   CU        0.724057    0.732955    0.376352     0.006663
CU2530   CU        0.754425    0.698924    0.375552     0.006663
NI2531   NI        0.755181    0.731262    0.408624     0.004307
NI2532   NI        0.786277    0.702031    0.411618     0.004307
NI2533   NI        0.138429    0.765498    0.411301     0.004307
NI2534   NI        0.170159    0.770286    0.375655     0.004307
NI2535   NI        0.171686    0.799804    0.410688     0.004307
CU2536   CU        0.201610    0.767674    0.410610     0.006663
CU2537   CU        0.204402    0.796953    0.377232     0.006663
NI2538   NI        0.233980    0.767880    0.375426     0.004307
NI2539   NI        0.234654    0.797641    0.409571     0.004307
NI2540   NI        0.266198    0.766440    0.409727     0.004307
NI2541   NI        0.266099    0.800122    0.375328     0.004307
NI2542   NI        0.297571    0.771803    0.373949     0.004307
NI2543   NI        0.298538    0.799045    0.409946     0.004307
CU2544   CU        0.334451    0.771661    0.410221     0.006663
CU2545   CU        0.332893    0.797637    0.376163     0.006663
CU2546   CU        0.364681    0.771268    0.374699     0.006663
CU2547   CU        0.365402    0.800751    0.408074     0.006663
NI2548   NI        0.394720    0.771248    0.409650     0.004307
NI2549   NI        0.398206    0.800425    0.374274     0.004307
NI2550   NI        0.428446    0.772627    0.375803     0.004307
CU2551   CU        0.430939    0.801570    0.410538     0.006663
NI2552   NI        0.464618    0.770651    0.409112     0.004307
NI2553   NI        0.462728    0.800088    0.374226     0.004307
NI2554   NI        0.495057    0.771013    0.377165     0.004307
CU2555   CU        0.497087    0.802041    0.410951     0.006663
NI2556   NI        0.529350    0.774278    0.409465     0.004307
CU2557   CU        0.529923    0.799922    0.372260     0.006663
NI2558   NI        0.565496    0.770422    0.373174     0.004307
NI2559   NI        0.560345    0.800056    0.407302     0.004307
NI2560   NI        0.592214    0.774293    0.410472     0.004307
NI2561   NI        0.597672    0.797031    0.372607     0.004307
NI2562   NI        0.629061    0.769316    0.375419     0.004307
NI2563   NI        0.629411    0.795466    0.410104     0.004307
NI2564   NI        0.660908    0.765631    0.411705     0.004307
NI2565   NI        0.659740    0.798001    0.374006     0.004307
NI2566   NI        0.693011    0.764361    0.376738     0.004307
NI2567   NI        0.693968    0.795619    0.409322     0.004307
NI2568   NI        0.724278    0.765961    0.410858     0.004307
NI2569   NI        0.235399    0.827258    0.373741     0.004307
CU2570   CU        0.266699    0.826814    0.409884     0.006663
NI2571   NI        0.302085    0.827061    0.375225     0.004307
NI2572   NI        0.302462    0.857800    0.409290     0.004307
CU2573   CU        0.332813    0.829055    0.407300     0.006663
NI2574   NI        0.332259    0.857753    0.377236     0.004307
CU2575   CU        0.364665    0.828604    0.372913     0.006663
NI2576   NI        0.362134    0.860298    0.410855     0.004307
CU2577   CU        0.395375    0.831318    0.409488     0.006663
NI2578   NI        0.396237    0.857562    0.372124     0.004307
NI2579   NI        0.431819    0.830047    0.373340     0.004307
NI2580   NI        0.430581    0.858915    0.410316     0.004307
NI2581   NI        0.462164    0.831337    0.408781     0.004307
NI2582   NI        0.464667    0.858893    0.372348     0.004307
NI2583   NI        0.495353    0.827961    0.374382     0.004307
NI2584   NI        0.499083    0.860158    0.410127     0.004307
NI2585   NI        0.530752    0.829452    0.407141     0.004307
NI2586   NI        0.528015    0.886846    0.338054     0.004307
NI2587   NI        0.565652    0.827607    0.373962     0.004307
NI2588   NI        0.563896    0.854311    0.409635     0.004307
NI2589   NI        0.595054    0.824407    0.411216     0.004307
CU2590   CU        0.627823    0.825796    0.377086     0.006663
NI2591   NI        0.298757    0.031074    0.483436     0.004307
NI2592   NI        0.328931    0.029066    0.449464     0.004307
NI2593   NI        0.364327    0.027779    0.484201     0.004307
NI2594   NI        0.395462    0.026347    0.444906     0.004307
NI2595   NI        0.431042    0.025946    0.481397     0.004307
CU2596   CU        0.464009    0.027104    0.442880     0.006663
NI2597   NI        0.495845    0.026326    0.477161     0.004307
NI2598   NI        0.528848    0.025140    0.441004     0.004307
CU2599   CU        0.564286    0.037473    0.488356     0.006663
NI2600   NI        0.171548    0.089629    0.480662     0.004307
NI2601   NI        0.202446    0.086939    0.446823     0.004307
NI2602   NI        0.235712    0.061103    0.445248     0.004307
NI2603   NI        0.233887    0.089205    0.482345     0.004307
NI2604   NI        0.267049    0.058886    0.480794     0.004307
NI2605   NI        0.267254    0.089502    0.445554     0.004307
NI2606   NI        0.297266    0.055853    0.442064     0.004307
NI2607   NI        0.297396    0.088195    0.480556     0.004307
NI2608   NI        0.331679    0.056792    0.481982     0.004307
CU2609   CU        0.328529    0.084949    0.448797     0.006663
CU2610   CU        0.363732    0.054583    0.448197     0.006663
CU2611   CU        0.366112    0.086182    0.480222     0.006663
CU2612   CU        0.399268    0.053304    0.479129     0.006663
NI2613   NI        0.397959    0.084212    0.447903     0.004307
NI2614   NI        0.429611    0.053793    0.444445     0.004307
NI2615   NI        0.430700    0.084978    0.479573     0.004307
CU2616   CU        0.462999    0.054284    0.480504     0.006663
CU2617   CU        0.463387    0.084642    0.444250     0.006663
NI2618   NI        0.498729    0.054626    0.443216     0.004307
CU2619   CU        0.494822    0.083810    0.482563     0.006663
NI2620   NI        0.526705    0.054547    0.479683     0.004307
NI2621   NI        0.529127    0.083109    0.443390     0.004307
CU2622   CU        0.560889    0.055412    0.446476     0.006663
CU2623   CU        0.560906    0.078767    0.483074     0.006663
NI2624   NI        0.598688    0.059831    0.494178     0.004307
NI2625   NI        0.596903    0.079387    0.436617     0.004307
NI2626   NI        0.632506    0.052198    0.435578     0.004307
CU2627   CU        0.631044    0.086149    0.490006     0.006663
NI2628   NI        0.637109    0.093305    0.446397     0.004307
NI2629   NI        0.692794    0.091968    0.485083     0.004307
CU2630   CU        0.077364    0.148029    0.521396     0.006663
NI2631   NI        0.139863    0.118150    0.480975     0.004307
NI2632   NI        0.140184    0.149426    0.445985     0.004307
CU2633   CU        0.171116    0.117644    0.445423     0.006663
NI2634   NI        0.170017    0.148603    0.479839     0.004307
NI2635   NI        0.200908    0.118225    0.482531     0.004307
CU2636   CU        0.199353    0.147773    0.445751     0.006663
NI2637   NI        0.234240    0.117483    0.446430     0.004307
NI2638   NI        0.232470    0.146590    0.484228     0.004307
CU2639   CU        0.266544    0.117674    0.481912     0.006663
NI2640   NI        0.275919    0.161267    0.443204     0.004307
NI2641   NI        0.300997    0.115609    0.447500     0.004307
NI2642   NI        0.301753    0.142732    0.481393     0.004307
CU2643   CU        0.331682    0.112271    0.483278     0.006663
NI2644   NI        0.333063    0.142685    0.449091     0.004307
CU2645   CU        0.365035    0.113857    0.444740     0.006663
NI2646   NI        0.365320    0.144111    0.482059     0.004307
CU2647   CU        0.397116    0.115051    0.481116     0.006663
CU2648   CU        0.396243    0.141788    0.444863     0.006663
NI2649   NI        0.430790    0.112133    0.447484     0.004307
NI2650   NI        0.434576    0.163248    0.476853     0.004307
NI2651   NI        0.463433    0.111132    0.479000     0.004307
NI2652   NI        0.465764    0.161519    0.447106     0.004307
NI2653   NI        0.497958    0.109892    0.444859     0.004307
CU2654   CU        0.496050    0.160828    0.480474     0.006663
CU2655   CU        0.530684    0.110220    0.477782     0.006663
NI2656   NI        0.526684    0.159884    0.445632     0.004307
NI2657   NI        0.557867    0.127661    0.446749     0.004307
NI2658   NI        0.559017    0.160375    0.477993     0.004307
NI2659   NI        0.591040    0.128851    0.478597     0.004307
NI2660   NI        0.591862    0.155605    0.446000     0.004307
NI2661   NI        0.628239    0.132993    0.450587     0.004307
NI2662   NI        0.619211    0.162867    0.481795     0.004307
NI2663   NI        0.657739    0.116672    0.479302     0.004307
NI2664   NI        0.665948    0.148925    0.445493     0.004307
NI2665   NI        0.695212    0.118875    0.446049     0.004307
NI2666   NI        0.696698    0.150869    0.483462     0.004307
NI2667   NI        0.725335    0.118459    0.486824     0.004307
NI2668   NI        0.727766    0.149625    0.447489     0.004307
NI2669   NI        0.756746    0.150205    0.483594     0.004307
NI2670   NI        0.080080    0.148032    0.438738     0.004307
NI2671   NI        0.076515    0.215209    0.446397     0.004307
NI2672   NI        0.108099    0.180964    0.441066     0.004307
CU2673   CU        0.105857    0.211677    0.481659     0.006663
NI2674   NI        0.138523    0.183443    0.478875     0.004307
NI2675   NI        0.138325    0.213143    0.447160     0.004307
NI2676   NI        0.168681    0.179974    0.444375     0.004307
NI2677   NI        0.171029    0.211099    0.483504     0.004307
NI2678   NI        0.199244    0.178871    0.482046     0.004307
CU2679   CU        0.203023    0.208055    0.444048     0.006663
NI2680   NI        0.243874    0.192302    0.445571     0.004307
CU2681   CU        0.241784    0.225020    0.477821     0.006663
CU2682   CU        0.275048    0.194266    0.478639     0.006663
CU2683   CU        0.273328    0.222441    0.444800     0.006663
CU2684   CU        0.305201    0.191268    0.446102     0.006663
CU2685   CU        0.303944    0.224591    0.478701     0.006663
CU2686   CU        0.334911    0.193722    0.480115     0.006663
NI2687   NI        0.335969    0.224384    0.445937     0.004307
CU2688   CU        0.366127    0.197029    0.447211     0.006663
CU2689   CU        0.369212    0.223558    0.480736     0.006663
NI2690   NI        0.402255    0.194382    0.476694     0.004307
CU2691   CU        0.400481    0.223321    0.446296     0.006663
NI2692   NI        0.434831    0.191983    0.444071     0.004307
NI2693   NI        0.432704    0.222716    0.476979     0.004307
CU2694   CU        0.466675    0.191098    0.478301     0.006663
NI2695   NI        0.465921    0.222709    0.445748     0.004307
CU2696   CU        0.496364    0.189282    0.445034     0.006663
CU2697   CU        0.495498    0.221342    0.478280     0.006663
NI2698   NI        0.526457    0.190716    0.479073     0.004307
CU2699   CU        0.527347    0.220380    0.444136     0.006663
NI2700   NI        0.560970    0.188642    0.442556     0.004307
NI2701   NI        0.556155    0.221178    0.481466     0.004307
NI2702   NI        0.587956    0.193442    0.476731     0.004307
NI2703   NI        0.590212    0.221041    0.444245     0.004307
NI2704   NI        0.624474    0.186150    0.443927     0.004307
CU2705   CU        0.619524    0.223212    0.478925     0.006663
NI2706   NI        0.649371    0.191257    0.482846     0.004307
CU2707   CU        0.650825    0.220061    0.446841     0.006663
NI2708   NI        0.697756    0.179685    0.447243     0.004307
CU2709   CU        0.696927    0.209627    0.484583     0.006663
CU2710   CU        0.726380    0.181360    0.483383     0.006663
NI2711   NI        0.726729    0.214226    0.447586     0.004307
CU2712   CU        0.755603    0.183797    0.446197     0.006663
NI2713   NI        0.757362    0.212223    0.480344     0.004307
NI2714   NI        0.785812    0.180817    0.480169     0.004307
NI2715   NI        0.787031    0.214629    0.445725     0.004307
NI2716   NI        0.048821    0.245964    0.446355     0.004307
NI2717   NI        0.049726    0.278758    0.484774     0.004307
NI2718   NI        0.077996    0.245764    0.483239     0.004307
NI2719   NI        0.078350    0.275210    0.448141     0.004307
NI2720   NI        0.108007    0.244504    0.446091     0.004307
NI2721   NI        0.106237    0.276143    0.483004     0.004307
NI2722   NI        0.135031    0.244749    0.481286     0.004307
NI2723   NI        0.137080    0.275868    0.451766     0.004307
NI2724   NI        0.174602    0.257584    0.446489     0.004307
NI2725   NI        0.178897    0.286630    0.478219     0.004307
NI2726   NI        0.210416    0.257229    0.478554     0.004307
NI2727   NI        0.208066    0.285463    0.443751     0.004307
CU2728   CU        0.242470    0.254168    0.443092     0.006663
NI2729   NI        0.242678    0.286277    0.477027     0.004307
CU2730   CU        0.275398    0.256853    0.475111     0.006663
CU2731   CU        0.274162    0.289712    0.444655     0.006663
CU2732   CU        0.306845    0.255543    0.445641     0.006663
NI2733   NI        0.307731    0.286511    0.477438     0.004307
CU2734   CU        0.336909    0.255791    0.478064     0.006663
CU2735   CU        0.340331    0.286982    0.444691     0.006663
CU2736   CU        0.368180    0.254165    0.447569     0.006663
CU2737   CU        0.368358    0.286225    0.480249     0.006663
NI2738   NI        0.400359    0.254683    0.478519     0.004307
CU2739   CU        0.401910    0.286309    0.443809     0.006663
CU2740   CU        0.433369    0.253610    0.445773     0.006663
CU2741   CU        0.432537    0.285260    0.477907     0.006663
CU2742   CU        0.465275    0.254232    0.479033     0.006663
CU2743   CU        0.463730    0.286011    0.444430     0.006663
CU2744   CU        0.495248    0.257075    0.445275     0.006663
CU2745   CU        0.496928    0.283638    0.478173     0.006663
CU2746   CU        0.527573    0.251895    0.480659     0.006663
CU2747   CU        0.528661    0.285136    0.446885     0.006663
CU2748   CU        0.557503    0.253106    0.444359     0.006663
CU2749   CU        0.559122    0.286397    0.480194     0.006663
NI2750   NI        0.589210    0.251975    0.476492     0.004307
CU2751   CU        0.588639    0.283859    0.445975     0.006663
NI2752   NI        0.619956    0.252959    0.444675     0.004307
CU2753   CU        0.619441    0.286235    0.477008     0.006663
NI2754   NI        0.649272    0.254943    0.478458     0.004307
CU2755   CU        0.649030    0.285797    0.444647     0.006663
CU2756   CU        0.679867    0.254121    0.442516     0.006663
CU2757   CU        0.682138    0.287691    0.475005     0.006663
CU2758   CU        0.727428    0.244981    0.479790     0.006663
NI2759   NI        0.728152    0.278616    0.441803     0.004307
CU2760   CU        0.758188    0.246626    0.442229     0.006663
NI2761   NI        0.755974    0.277981    0.480260     0.004307
NI2762   NI        0.787553    0.247562    0.478919     0.004307
NI2763   NI        0.787114    0.279493    0.443351     0.004307
NI2764   NI        0.816037    0.247639    0.445993     0.004307
CU2765   CU        0.817181    0.278720    0.480121     0.006663
NI2766   NI        0.020480    0.308837    0.486095     0.004307
NI2767   NI        0.011815    0.347794    0.442651     0.004307
NI2768   NI        0.038755    0.316806    0.442350     0.004307
NI2769   NI        0.037768    0.349409    0.476832     0.004307
NI2770   NI        0.080241    0.310004    0.485098     0.004307
NI2771   NI        0.069536    0.348574    0.443664     0.004307
NI2772   NI        0.098591    0.317120    0.444719     0.004307
NI2773   NI        0.098142    0.349142    0.480158     0.004307
NI2774   NI        0.140665    0.304963    0.487896     0.004307
NI2775   NI        0.129299    0.346779    0.447070     0.004307
NI2776   NI        0.180338    0.317500    0.444289     0.004307
NI2777   NI        0.180547    0.350916    0.478466     0.004307
NI2778   NI        0.210546    0.317289    0.476373     0.004307
CU2779   CU        0.209580    0.348561    0.441606     0.006663
CU2780   CU        0.238476    0.319697    0.443067     0.006663
CU2781   CU        0.242751    0.346261    0.478343     0.006663
NI2782   NI        0.274854    0.318199    0.477035     0.004307
CU2783   CU        0.272924    0.349779    0.442884     0.006663
CU2784   CU        0.307637    0.317051    0.443700     0.006663
CU2785   CU        0.307353    0.347865    0.476195     0.006663
CU2786   CU        0.337963    0.316007    0.477435     0.006663
CU2787   CU        0.338387    0.350066    0.445656     0.006663
CU2788   CU        0.369937    0.318903    0.447575     0.006663
CU2789   CU        0.369325    0.349572    0.478493     0.006663
CU2790   CU        0.401051    0.318994    0.476368     0.006663
CU2791   CU        0.400316    0.349340    0.446863     0.006663
CU2792   CU        0.431821    0.315663    0.446081     0.006663
CU2793   CU        0.433115    0.349466    0.479070     0.006663
CU2794   CU        0.466683    0.317299    0.478155     0.006663
CU2795   CU        0.462744    0.349298    0.444091     0.006663
CU2796   CU        0.494268    0.317323    0.446370     0.006663
CU2797   CU        0.495734    0.349227    0.478955     0.006663
CU2798   CU        0.525962    0.316606    0.478262     0.006663
CU2799   CU        0.527758    0.348471    0.443524     0.006663
CU2800   CU        0.558493    0.317771    0.443966     0.006663
CU2801   CU        0.557261    0.350542    0.475314     0.006663
CU2802   CU        0.589204    0.318266    0.477815     0.006663
CU2803   CU        0.590709    0.349939    0.444098     0.006663
CU2804   CU        0.619536    0.317549    0.443927     0.006663
CU2805   CU        0.621682    0.348637    0.478483     0.006663
NI2806   NI        0.652582    0.316412    0.478972     0.004307
NI2807   NI        0.665133    0.341682    0.444783     0.004307
NI2808   NI        0.696273    0.313548    0.441782     0.004307
NI2809   NI        0.695210    0.345051    0.477910     0.004307
NI2810   NI        0.725990    0.311901    0.478852     0.004307
NI2811   NI        0.727685    0.345199    0.445126     0.004307
NI2812   NI        0.756303    0.310380    0.445256     0.004307
NI2813   NI        0.758315    0.344376    0.478203     0.004307
NI2814   NI        0.786867    0.310090    0.479324     0.004307
NI2815   NI        0.788209    0.347470    0.444613     0.004307
NI2816   NI        0.816148    0.312273    0.442888     0.004307
NI2817   NI        0.816969    0.342302    0.480067     0.004307
NI2818   NI        0.844603    0.310565    0.477815     0.004307
NI2819   NI        0.843337    0.341692    0.445589     0.004307
NI2820   NI        0.009835    0.380246    0.476385     0.004307
NI2821   NI        0.011971    0.410813    0.443737     0.004307
NI2822   NI        0.041864    0.379973    0.442854     0.004307
NI2823   NI        0.040810    0.411053    0.478364     0.004307
NI2824   NI        0.067944    0.380285    0.478222     0.004307
CU2825   CU        0.070879    0.412039    0.444769     0.006663
CU2826   CU        0.099653    0.378766    0.445420     0.006663
NI2827   NI        0.098014    0.410262    0.477192     0.004307
NI2828   NI        0.149992    0.381652    0.475834     0.004307
NI2829   NI        0.149901    0.412123    0.444198     0.004307
NI2830   NI        0.178962    0.380928    0.444046     0.004307
NI2831   NI        0.181980    0.411965    0.477026     0.004307
NI2832   NI        0.211536    0.381155    0.476487     0.004307
CU2833   CU        0.209762    0.413053    0.441520     0.006663
CU2834   CU        0.240015    0.382255    0.442744     0.006663
CU2835   CU        0.241473    0.411729    0.478567     0.006663
CU2836   CU        0.275460    0.379600    0.475474     0.006663
CU2837   CU        0.274077    0.410306    0.443014     0.006663
CU2838   CU        0.306019    0.380801    0.443023     0.006663
CU2839   CU        0.306598    0.410934    0.477671     0.006663
CU2840   CU        0.338598    0.379720    0.478300     0.006663
CU2841   CU        0.339100    0.413050    0.444987     0.006663
CU2842   CU        0.367159    0.379753    0.446446     0.006663
CU2843   CU        0.369527    0.413554    0.480064     0.006663
CU2844   CU        0.401308    0.380665    0.479578     0.006663
CU2845   CU        0.402603    0.409846    0.446581     0.006663
CU2846   CU        0.433862    0.380586    0.445424     0.006663
CU2847   CU        0.432920    0.412575    0.478056     0.006663
CU2848   CU        0.463813    0.380432    0.477879     0.006663
CU2849   CU        0.462381    0.412338    0.445305     0.006663
CU2850   CU        0.493350    0.381395    0.443422     0.006663
CU2851   CU        0.495014    0.414403    0.477650     0.006663
CU2852   CU        0.524653    0.382947    0.475061     0.006663
CU2853   CU        0.525484    0.414911    0.443028     0.006663
CU2854   CU        0.559306    0.381199    0.443080     0.006663
CU2855   CU        0.557805    0.414692    0.475496     0.006663
CU2856   CU        0.588004    0.382530    0.478171     0.006663
CU2857   CU        0.588607    0.413783    0.444082     0.006663
CU2858   CU        0.619726    0.379583    0.445628     0.006663
CU2859   CU        0.619904    0.413444    0.478641     0.006663
NI2860   NI        0.649847    0.381786    0.480769     0.004307
NI2861   NI        0.649727    0.412960    0.445855     0.004307
CU2862   CU        0.697111    0.375924    0.446282     0.006663
NI2863   NI        0.679372    0.410602    0.480221     0.004307
NI2864   NI        0.727841    0.375472    0.480770     0.004307
NI2865   NI        0.727106    0.407685    0.444230     0.004307
NI2866   NI        0.757188    0.377084    0.445740     0.004307
NI2867   NI        0.758981    0.409168    0.479149     0.004307
NI2868   NI        0.787825    0.376309    0.479945     0.004307
NI2869   NI        0.787961    0.410840    0.444470     0.004307
CU2870   CU        0.817159    0.376976    0.443437     0.006663
NI2871   NI        0.816307    0.409905    0.480590     0.004307
NI2872   NI        0.845620    0.373974    0.477451     0.004307
NI2873   NI        0.876943    0.369850    0.446028     0.004307
NI2874   NI        0.015030    0.443930    0.479280     0.004307
NI2875   NI        0.012183    0.472473    0.445031     0.004307
NI2876   NI        0.042302    0.443962    0.443356     0.004307
NI2877   NI        0.042418    0.477549    0.480557     0.004307
NI2878   NI        0.069253    0.443052    0.478445     0.004307
NI2879   NI        0.071205    0.477588    0.445031     0.004307
NI2880   NI        0.099571    0.443831    0.445426     0.004307
NI2881   NI        0.097101    0.474147    0.477211     0.004307
NI2882   NI        0.152242    0.442864    0.475851     0.004307
CU2883   CU        0.150279    0.474640    0.443351     0.006663
NI2884   NI        0.180994    0.443872    0.440327     0.004307
NI2885   NI        0.181840    0.474211    0.477048     0.004307
CU2886   CU        0.211676    0.442132    0.477592     0.006663
CU2887   CU        0.210645    0.474257    0.442453     0.006663
CU2888   CU        0.241194    0.443007    0.443937     0.006663
CU2889   CU        0.242576    0.473785    0.475866     0.006663
NI2890   NI        0.274155    0.443258    0.478898     0.004307
CU2891   CU        0.272913    0.475890    0.443520     0.006663
CU2892   CU        0.305507    0.442606    0.447035     0.006663
CU2893   CU        0.305027    0.474511    0.478633     0.006663
CU2894   CU        0.337494    0.443323    0.480063     0.006663
CU2895   CU        0.337909    0.474651    0.443745     0.006663
CU2896   CU        0.370424    0.442157    0.445942     0.006663
CU2897   CU        0.368602    0.475089    0.480388     0.006663
CU2898   CU        0.399618    0.444363    0.480442     0.006663
CU2899   CU        0.398225    0.473500    0.446574     0.006663
CU2900   CU        0.432653    0.441958    0.443759     0.006663
CU2901   CU        0.433399    0.475680    0.478269     0.006663
CU2902   CU        0.461407    0.444240    0.478563     0.006663
CU2903   CU        0.461801    0.474441    0.443697     0.006663
CU2904   CU        0.493610    0.444101    0.442266     0.006663
CU2905   CU        0.494500    0.474522    0.477049     0.006663
CU2906   CU        0.524361    0.444097    0.476664     0.006663
CU2907   CU        0.526007    0.474832    0.444046     0.006663
CU2908   CU        0.558223    0.443977    0.444776     0.006663
CU2909   CU        0.555451    0.473945    0.479292     0.006663
CU2910   CU        0.589399    0.445549    0.478348     0.006663
CU2911   CU        0.586743    0.475436    0.446776     0.006663
CU2912   CU        0.618908    0.443891    0.443689     0.006663
CU2913   CU        0.620410    0.474011    0.479526     0.006663
CU2914   CU        0.651323    0.445427    0.477982     0.006663
CU2915   CU        0.652170    0.474243    0.443974     0.006663
NI2916   NI        0.681575    0.442303    0.444642     0.004307
NI2917   NI        0.680769    0.475612    0.478610     0.004307
NI2918   NI        0.710706    0.443070    0.479852     0.004307
NI2919   NI        0.711042    0.473756    0.447600     0.004307
NI2920   NI        0.759364    0.442443    0.442175     0.004307
NI2921   NI        0.761545    0.477020    0.480810     0.004307
CU2922   CU        0.786068    0.441151    0.479155     0.006663
NI2923   NI        0.792274    0.471433    0.445956     0.004307
NI2924   NI        0.821081    0.440236    0.447521     0.004307
NI2925   NI        0.817931    0.476040    0.480769     0.004307
NI2926   NI        0.847111    0.446569    0.483864     0.004307
NI2927   NI        0.845889    0.474841    0.447825     0.004307
CU2928   CU        0.010519    0.506168    0.480392     0.006663
NI2929   NI        0.004823    0.534944    0.446782     0.004307
NI2930   NI        0.039580    0.507497    0.445475     0.004307
CU2931   CU        0.038017    0.537685    0.480862     0.006663
CU2932   CU        0.070434    0.508369    0.483397     0.006663
NI2933   NI        0.067822    0.537835    0.449714     0.004307
NI2934   NI        0.098862    0.508697    0.444673     0.004307
NI2935   NI        0.098769    0.537812    0.481151     0.004307
NI2936   NI        0.148214    0.504854    0.479132     0.004307
NI2937   NI        0.149404    0.538886    0.444641     0.004307
NI2938   NI        0.178911    0.506482    0.445689     0.004307
NI2939   NI        0.179623    0.537874    0.477359     0.004307
CU2940   CU        0.212147    0.505240    0.476934     0.006663
CU2941   CU        0.207268    0.537403    0.443776     0.006663
CU2942   CU        0.240802    0.506056    0.444701     0.006663
NI2943   NI        0.239142    0.539050    0.476698     0.004307
CU2944   CU        0.273520    0.505680    0.477017     0.006663
NI2945   NI        0.270782    0.536352    0.444813     0.004307
CU2946   CU        0.303828    0.505062    0.444330     0.006663
CU2947   CU        0.303172    0.538709    0.478287     0.006663
CU2948   CU        0.336050    0.505346    0.478884     0.006663
CU2949   CU        0.333777    0.536041    0.445752     0.006663
CU2950   CU        0.369443    0.505167    0.443641     0.006663
CU2951   CU        0.365231    0.535389    0.477528     0.006663
CU2952   CU        0.399227    0.505837    0.478581     0.006663
CU2953   CU        0.398207    0.537428    0.444993     0.006663
CU2954   CU        0.430528    0.506167    0.446849     0.006663
CU2955   CU        0.429599    0.537738    0.479579     0.006663
CU2956   CU        0.464427    0.505499    0.475837     0.006663
CU2957   CU        0.463145    0.537597    0.445652     0.006663
CU2958   CU        0.493911    0.504930    0.444344     0.006663
CU2959   CU        0.492231    0.536314    0.481304     0.006663
CU2960   CU        0.523754    0.505274    0.478418     0.006663
NI2961   NI        0.524208    0.535446    0.445967     0.004307
CU2962   CU        0.555554    0.505201    0.444195     0.006663
CU2963   CU        0.555760    0.535710    0.479996     0.006663
CU2964   CU        0.589110    0.507059    0.481489     0.006663
CU2965   CU        0.588716    0.536177    0.444197     0.006663
CU2966   CU        0.619696    0.503584    0.445616     0.006663
CU2967   CU        0.619111    0.537562    0.480434     0.006663
NI2968   NI        0.649742    0.504677    0.480118     0.004307
NI2969   NI        0.651910    0.536766    0.447776     0.004307
CU2970   CU        0.680696    0.505691    0.444894     0.006663
NI2971   NI        0.682296    0.535495    0.480018     0.004307
CU2972   CU        0.713113    0.505840    0.481188     0.006663
NI2973   NI        0.711519    0.535653    0.445338     0.004307
NI2974   NI        0.764083    0.508115    0.445040     0.004307
NI2975   NI        0.762245    0.541106    0.480291     0.004307
NI2976   NI        0.789296    0.508646    0.483343     0.004307
NI2977   NI        0.790285    0.542694    0.447030     0.004307
CU2978   CU        0.820263    0.508876    0.446620     0.006663
NI2979   NI        0.816480    0.542054    0.483266     0.004307
NI2980   NI        0.846809    0.505655    0.480920     0.004307
NI2981   NI        0.846292    0.540555    0.447931     0.004307
NI2982   NI        0.008616    0.565763    0.480721     0.004307
NI2983   NI        0.035680    0.566249    0.447046     0.004307
NI2984   NI        0.037592    0.597367    0.481636     0.004307
NI2985   NI        0.069668    0.569092    0.481779     0.004307
NI2986   NI        0.063778    0.597129    0.445634     0.004307
CU2987   CU        0.109013    0.579328    0.437345     0.006663
NI2988   NI        0.117938    0.604451    0.476614     0.004307
NI2989   NI        0.147553    0.570994    0.480430     0.004307
NI2990   NI        0.148668    0.601089    0.446359     0.004307
NI2991   NI        0.177960    0.570689    0.445274     0.004307
NI2992   NI        0.179936    0.600764    0.480607     0.004307
NI2993   NI        0.208487    0.569203    0.478863     0.004307
CU2994   CU        0.209052    0.600984    0.444162     0.006663
CU2995   CU        0.239313    0.569106    0.447064     0.006663
CU2996   CU        0.237952    0.601045    0.479725     0.006663
CU2997   CU        0.271851    0.569135    0.478522     0.006663
CU2998   CU        0.269976    0.599052    0.445138     0.006663
NI2999   NI        0.303173    0.569167    0.445515     0.004307
CU3000   CU        0.302141    0.601875    0.478011     0.006663
CU3001   CU        0.332796    0.570293    0.477334     0.006663
CU3002   CU        0.337406    0.601479    0.444703     0.006663
CU3003   CU        0.367151    0.570060    0.444834     0.006663
CU3004   CU        0.367374    0.599632    0.479532     0.006663
CU3005   CU        0.398500    0.568130    0.480101     0.006663
CU3006   CU        0.397876    0.599894    0.448054     0.006663
CU3007   CU        0.430362    0.570791    0.444923     0.006663
CU3008   CU        0.428794    0.599414    0.481762     0.006663
CU3009   CU        0.462316    0.568674    0.481080     0.006663
CU3010   CU        0.463113    0.598809    0.447544     0.006663
CU3011   CU        0.493395    0.569899    0.446012     0.006663
CU3012   CU        0.492350    0.596927    0.480365     0.006663
CU3013   CU        0.524356    0.565795    0.478680     0.006663
NI3014   NI        0.524965    0.598840    0.446778     0.004307
NI3015   NI        0.556519    0.567701    0.448240     0.004307
CU3016   CU        0.557459    0.598736    0.478785     0.006663
CU3017   CU        0.588345    0.565427    0.481046     0.006663
CU3018   CU        0.589129    0.600296    0.446046     0.006663
CU3019   CU        0.619608    0.567535    0.449582     0.006663
CU3020   CU        0.619912    0.599534    0.479261     0.006663
CU3021   CU        0.652412    0.567701    0.479748     0.006663
NI3022   NI        0.650250    0.599441    0.446215     0.004307
NI3023   NI        0.682263    0.569009    0.445603     0.004307
NI3024   NI        0.683314    0.599625    0.482422     0.004307
NI3025   NI        0.713755    0.569748    0.481273     0.004307
NI3026   NI        0.713952    0.597832    0.447397     0.004307
NI3027   NI        0.760703    0.573888    0.445443     0.004307
NI3028   NI        0.759951    0.606257    0.483635     0.004307
NI3029   NI        0.788939    0.575971    0.479760     0.004307
CU3030   CU        0.787255    0.607582    0.446137     0.006663
NI3031   NI        0.818940    0.575531    0.445296     0.004307
CU3032   CU        0.817654    0.606976    0.482358     0.006663
CU3033   CU        0.844844    0.574032    0.479347     0.006663
NI3034   NI        0.054962    0.655853    0.443839     0.004307
NI3035   NI        0.076382    0.646538    0.480360     0.004307
NI3036   NI        0.095599    0.666609    0.443314     0.004307
NI3037   NI        0.121779    0.633169    0.445021     0.004307
NI3038   NI        0.118668    0.661773    0.478442     0.004307
NI3039   NI        0.150071    0.631909    0.478640     0.004307
NI3040   NI        0.137828    0.676518    0.441747     0.004307
NI3041   NI        0.178902    0.629767    0.444905     0.004307
NI3042   NI        0.169017    0.677439    0.480567     0.004307
CU3043   CU        0.208345    0.632861    0.479824     0.006663
NI3044   NI        0.201300    0.676629    0.445353     0.004307
NI3045   NI        0.239810    0.630619    0.446930     0.004307
NI3046   NI        0.238665    0.663358    0.475878     0.004307
NI3047   NI        0.270188    0.633195    0.479041     0.004307
NI3048   NI        0.272687    0.662652    0.443989     0.004307
CU3049   CU        0.303408    0.631522    0.444625     0.006663
CU3050   CU        0.302981    0.662180    0.476852     0.006663
CU3051   CU        0.334945    0.630110    0.478763     0.006663
CU3052   CU        0.336322    0.661333    0.444527     0.006663
CU3053   CU        0.368428    0.630786    0.445208     0.006663
NI3054   NI        0.366903    0.663683    0.479808     0.004307
CU3055   CU        0.399258    0.630846    0.480780     0.006663
CU3056   CU        0.400951    0.662886    0.444285     0.006663
CU3057   CU        0.429513    0.631411    0.446572     0.006663
NI3058   NI        0.428171    0.661718    0.480749     0.004307
CU3059   CU        0.462118    0.630586    0.480930     0.006663
CU3060   CU        0.463478    0.660831    0.444888     0.006663
CU3061   CU        0.493706    0.628656    0.446312     0.006663
CU3062   CU        0.492405    0.661742    0.479725     0.006663
CU3063   CU        0.527333    0.632111    0.479547     0.006663
CU3064   CU        0.525691    0.661781    0.445960     0.006663
CU3065   CU        0.557730    0.629823    0.445771     0.006663
NI3066   NI        0.558580    0.662933    0.478624     0.004307
CU3067   CU        0.587913    0.629581    0.480098     0.006663
CU3068   CU        0.586903    0.661632    0.446352     0.006663
CU3069   CU        0.619836    0.631551    0.446711     0.006663
NI3070   NI        0.619913    0.661893    0.479091     0.004307
CU3071   CU        0.652228    0.631321    0.478011     0.006663
NI3072   NI        0.649884    0.663193    0.446312     0.004307
NI3073   NI        0.681411    0.632554    0.446452     0.004307
CU3074   CU        0.681560    0.664892    0.481749     0.006663
NI3075   NI        0.730920    0.639236    0.483689     0.004307
NI3076   NI        0.730603    0.668325    0.446213     0.004307
NI3077   NI        0.758764    0.638934    0.447101     0.004307
CU3078   CU        0.756964    0.672129    0.479763     0.006663
CU3079   CU        0.787064    0.640326    0.480928     0.006663
NI3080   NI        0.788216    0.670502    0.444955     0.004307
CU3081   CU        0.815655    0.638321    0.443411     0.006663
NI3082   NI        0.073534    0.703693    0.489660     0.004307
NI3083   NI        0.107281    0.705523    0.441373     0.004307
NI3084   NI        0.106491    0.736241    0.481864     0.004307
NI3085   NI        0.136776    0.705199    0.478217     0.004307
CU3086   CU        0.137805    0.735275    0.445457     0.006663
NI3087   NI        0.167653    0.705909    0.443760     0.004307
NI3088   NI        0.166996    0.737076    0.479547     0.004307
CU3089   CU        0.197759    0.707991    0.479446     0.006663
CU3090   CU        0.200259    0.737524    0.445883     0.006663
NI3091   NI        0.229893    0.709049    0.448753     0.004307
NI3092   NI        0.233126    0.739059    0.479857     0.004307
CU3093   CU        0.264558    0.709114    0.482813     0.006663
NI3094   NI        0.264220    0.737004    0.448659     0.004307
CU3095   CU        0.306389    0.692728    0.445373     0.006663
NI3096   NI        0.304619    0.724739    0.475103     0.004307
NI3097   NI        0.335790    0.692712    0.478529     0.004307
NI3098   NI        0.337218    0.723590    0.443577     0.004307
NI3099   NI        0.370415    0.692689    0.444165     0.004307
NI3100   NI        0.364837    0.723928    0.478695     0.004307
CU3101   CU        0.398538    0.692548    0.478938     0.006663
NI3102   NI        0.395774    0.745171    0.442187     0.004307
NI3103   NI        0.431342    0.692347    0.447146     0.004307
NI3104   NI        0.431356    0.742815    0.483420     0.004307
NI3105   NI        0.464691    0.715490    0.483887     0.004307
CU3106   CU        0.464208    0.745155    0.446292     0.006663
NI3107   NI        0.493006    0.689328    0.445876     0.004307
NI3108   NI        0.498333    0.743061    0.481088     0.004307
NI3109   NI        0.525575    0.692011    0.478686     0.004307
CU3110   CU        0.529897    0.745110    0.444334     0.006663
CU3111   CU        0.558005    0.691374    0.444491     0.006663
NI3112   NI        0.556025    0.722311    0.474882     0.004307
CU3113   CU        0.589237    0.695669    0.478370     0.006663
NI3114   NI        0.588365    0.725276    0.444739     0.004307
NI3115   NI        0.619708    0.695216    0.446403     0.004307
NI3116   NI        0.619574    0.727893    0.475329     0.004307
CU3117   CU        0.649575    0.695326    0.476249     0.006663
CU3118   CU        0.648672    0.727251    0.443883     0.006663
NI3119   NI        0.679236    0.695476    0.445925     0.004307
CU3120   CU        0.694421    0.736201    0.484809     0.006663
NI3121   NI        0.725456    0.705940    0.481739     0.004307
NI3122   NI        0.726407    0.733772    0.445049     0.004307
NI3123   NI        0.759512    0.702514    0.445634     0.004307
CU3124   CU        0.755568    0.731859    0.477951     0.006663
NI3125   NI        0.787864    0.702016    0.481172     0.004307
NI3126   NI        0.140681    0.768991    0.479970     0.004307
CU3127   CU        0.170514    0.768363    0.445103     0.006663
NI3128   NI        0.170549    0.799041    0.478453     0.004307
NI3129   NI        0.200118    0.767907    0.481564     0.004307
NI3130   NI        0.204403    0.796655    0.444639     0.004307
NI3131   NI        0.233812    0.766929    0.443557     0.004307
CU3132   CU        0.233735    0.797612    0.480090     0.006663
NI3133   NI        0.264172    0.767851    0.479664     0.004307
CU3134   CU        0.265784    0.797452    0.442283     0.006663
NI3135   NI        0.296817    0.766972    0.445802     0.004307
NI3136   NI        0.299299    0.797406    0.479417     0.004307
NI3137   NI        0.335452    0.772716    0.480544     0.004307
CU3138   CU        0.331126    0.799995    0.442254     0.006663
NI3139   NI        0.365166    0.773774    0.442739     0.004307
NI3140   NI        0.367087    0.799464    0.479914     0.004307
NI3141   NI        0.399238    0.770127    0.478014     0.004307
NI3142   NI        0.400036    0.800267    0.444769     0.004307
NI3143   NI        0.431179    0.771509    0.445269     0.004307
NI3144   NI        0.431883    0.800141    0.477527     0.004307
NI3145   NI        0.464235    0.772544    0.481113     0.004307
NI3146   NI        0.463097    0.801813    0.445140     0.004307
CU3147   CU        0.497692    0.772702    0.446439     0.006663
NI3148   NI        0.495848    0.801310    0.482383     0.004307
NI3149   NI        0.528673    0.776154    0.477031     0.004307
NI3150   NI        0.531115    0.803945    0.443084     0.004307
NI3151   NI        0.561109    0.774416    0.444207     0.004307
NI3152   NI        0.563696    0.798862    0.483668     0.004307
NI3153   NI        0.596968    0.770459    0.483072     0.004307
NI3154   NI        0.597270    0.797664    0.445835     0.004307
NI3155   NI        0.627709    0.768232    0.446846     0.004307
NI3156   NI        0.629636    0.797511    0.480868     0.004307
NI3157   NI        0.662756    0.768108    0.482214     0.004307
CU3158   CU        0.662221    0.794373    0.443939     0.006663
NI3159   NI        0.692542    0.764617    0.446853     0.004307
NI3160   NI        0.694394    0.795956    0.475804     0.004307
NI3161   NI        0.725208    0.764810    0.478668     0.004307
NI3162   NI        0.235170    0.828892    0.443757     0.004307
NI3163   NI        0.266551    0.827769    0.478158     0.004307
NI3164   NI        0.298188    0.827418    0.445366     0.004307
NI3165   NI        0.299906    0.857423    0.481496     0.004307
CU3166   CU        0.331776    0.827238    0.481834     0.006663
NI3167   NI        0.330679    0.856445    0.443284     0.004307
NI3168   NI        0.363169    0.832487    0.445282     0.004307
NI3169   NI        0.362228    0.859100    0.479735     0.004307
NI3170   NI        0.399657    0.828463    0.481342     0.004307
NI3171   NI        0.397324    0.858519    0.446515     0.004307
NI3172   NI        0.429782    0.829162    0.444544     0.004307
NI3173   NI        0.431189    0.857628    0.482902     0.004307
NI3174   NI        0.463670    0.829459    0.479938     0.004307
NI3175   NI        0.463261    0.857312    0.445754     0.004307
NI3176   NI        0.497167    0.829886    0.445837     0.004307
CU3177   CU        0.497896    0.857982    0.481856     0.006663
NI3178   NI        0.529982    0.828726    0.479775     0.004307
NI3179   NI        0.532693    0.852806    0.444222     0.004307
NI3180   NI        0.566258    0.827941    0.447346     0.004307
NI3181   NI        0.563908    0.854846    0.479835     0.004307
NI3182   NI        0.596509    0.827326    0.481017     0.004307
NI3183   NI        0.627563    0.824259    0.446549     0.004307
NI3184   NI        0.331216    0.028781    0.517017     0.004307
NI3185   NI        0.364135    0.028791    0.550842     0.004307
NI3186   NI        0.399409    0.029845    0.519458     0.004307
NI3187   NI        0.431383    0.028843    0.552850     0.004307
NI3188   NI        0.463150    0.027484    0.515519     0.004307
NI3189   NI        0.497910    0.028513    0.551640     0.004307
NI3190   NI        0.532862    0.034706    0.518717     0.004307
NI3191   NI        0.199763    0.089244    0.518145     0.004307
NI3192   NI        0.267182    0.028507    0.514773     0.004307
NI3193   NI        0.233314    0.089107    0.552624     0.004307
NI3194   NI        0.268288    0.058657    0.550864     0.004307
NI3195   NI        0.267631    0.087381    0.514698     0.004307
NI3196   NI        0.298509    0.059008    0.516812     0.004307
NI3197   NI        0.300555    0.087086    0.552223     0.004307
CU3198   CU        0.334472    0.057845    0.552205     0.006663
CU3199   CU        0.334139    0.083482    0.517131     0.006663
NI3200   NI        0.366954    0.057504    0.516434     0.004307
CU3201   CU        0.364337    0.086929    0.550509     0.006663
NI3202   NI        0.398539    0.057769    0.554006     0.004307
CU3203   CU        0.400285    0.084710    0.516145     0.006663
CU3204   CU        0.432181    0.056541    0.517166     0.006663
NI3205   NI        0.431134    0.087608    0.551025     0.004307
CU3206   CU        0.464604    0.057226    0.552183     0.006663
NI3207   NI        0.463477    0.085140    0.514941     0.004307
CU3208   CU        0.495365    0.055886    0.516267     0.006663
CU3209   CU        0.495272    0.086521    0.549201     0.006663
NI3210   NI        0.531285    0.059703    0.554892     0.004307
CU3211   CU        0.529493    0.080695    0.514511     0.006663
NI3212   NI        0.567245    0.060490    0.524139     0.004307
NI3213   NI        0.564536    0.087713    0.556381     0.004307
NI3214   NI        0.596744    0.057058    0.557581     0.004307
CU3215   CU        0.590192    0.098221    0.512289     0.006663
NI3216   NI        0.630016    0.059438    0.524729     0.004307
NI3217   NI        0.629502    0.088162    0.557387     0.004307
NI3218   NI        0.661090    0.088229    0.521352     0.004307
NI3219   NI        0.107215    0.149706    0.551465     0.004307
NI3220   NI        0.138296    0.121770    0.551809     0.004307
NI3221   NI        0.137674    0.149412    0.513135     0.004307
CU3222   CU        0.168660    0.118283    0.517059     0.006663
NI3223   NI        0.170627    0.148792    0.550789     0.004307
NI3224   NI        0.200758    0.120474    0.550789     0.004307
CU3225   CU        0.199901    0.148423    0.517684     0.006663
CU3226   CU        0.235096    0.116017    0.517070     0.006663
NI3227   NI        0.233352    0.149936    0.550397     0.004307
NI3228   NI        0.264825    0.117982    0.550463     0.004307
NI3229   NI        0.272181    0.161932    0.509953     0.004307
NI3230   NI        0.301879    0.111619    0.516605     0.004307
CU3231   CU        0.305946    0.161774    0.545130     0.006663
NI3232   NI        0.332744    0.112001    0.548788     0.004307
NI3233   NI        0.333084    0.140904    0.515050     0.004307
CU3234   CU        0.366962    0.113244    0.517180     0.006663
NI3235   NI        0.363388    0.144565    0.551588     0.004307
CU3236   CU        0.396607    0.115634    0.552746     0.006663
NI3237   NI        0.397179    0.143534    0.517535     0.004307
NI3238   NI        0.431374    0.115693    0.516482     0.004307
NI3239   NI        0.428305    0.145896    0.552643     0.004307
NI3240   NI        0.464610    0.116208    0.549672     0.004307
NI3241   NI        0.465300    0.161942    0.511346     0.004307
NI3242   NI        0.498649    0.112177    0.513858     0.004307
NI3243   NI        0.497497    0.160628    0.547861     0.004307
NI3244   NI        0.523688    0.126081    0.546934     0.004307
NI3245   NI        0.529080    0.160824    0.511289     0.004307
NI3246   NI        0.559150    0.128938    0.509605     0.004307
NI3247   NI        0.564808    0.146761    0.555331     0.004307
NI3248   NI        0.597143    0.118180    0.553195     0.004307
NI3249   NI        0.599257    0.147226    0.519584     0.004307
NI3250   NI        0.629854    0.117822    0.520882     0.004307
CU3251   CU        0.627691    0.149919    0.552389     0.006663
NI3252   NI        0.661537    0.119961    0.552822     0.004307
NI3253   NI        0.663293    0.146776    0.519714     0.004307
NI3254   NI        0.693697    0.118634    0.521726     0.004307
CU3255   CU        0.693027    0.151970    0.554530     0.006663
CU3256   CU        0.722950    0.123095    0.554331     0.006663
NI3257   NI        0.725318    0.150644    0.518600     0.004307
NI3258   NI        0.754317    0.150959    0.551302     0.004307
NI3259   NI        0.076117    0.214835    0.516123     0.004307
NI3260   NI        0.107930    0.182307    0.517611     0.004307
CU3261   CU        0.107596    0.214611    0.549792     0.006663
NI3262   NI        0.138647    0.181742    0.548606     0.004307
NI3263   NI        0.136731    0.212797    0.515556     0.004307
NI3264   NI        0.168656    0.180494    0.515637     0.004307
CU3265   CU        0.170078    0.211326    0.552207     0.006663
NI3266   NI        0.201090    0.180096    0.551532     0.004307
NI3267   NI        0.199187    0.210554    0.518721     0.004307
NI3268   NI        0.229885    0.179289    0.517168     0.004307
CU3269   CU        0.232180    0.211608    0.550967     0.006663
NI3270   NI        0.266895    0.179927    0.552342     0.004307
CU3271   CU        0.276496    0.223974    0.510650     0.006663
NI3272   NI        0.304992    0.190924    0.513740     0.004307
NI3273   NI        0.305539    0.225105    0.545872     0.004307
NI3274   NI        0.335025    0.193561    0.547546     0.004307
NI3275   NI        0.337579    0.222332    0.512965     0.004307
NI3276   NI        0.367861    0.193042    0.512458     0.004307
CU3277   CU        0.368980    0.223200    0.543590     0.006663
NI3278   NI        0.395871    0.173853    0.554055     0.004307
CU3279   CU        0.400698    0.223091    0.510696     0.006663
NI3280   NI        0.432972    0.192501    0.509723     0.004307
NI3281   NI        0.433323    0.223058    0.543290     0.004307
NI3282   NI        0.464849    0.192518    0.544203     0.004307
CU3283   CU        0.464030    0.222485    0.510812     0.006663
CU3284   CU        0.496565    0.189770    0.513793     0.006663
CU3285   CU        0.491848    0.223502    0.545485     0.006663
NI3286   NI        0.526487    0.192171    0.547745     0.004307
NI3287   NI        0.527567    0.221949    0.512481     0.004307
NI3288   NI        0.559265    0.189752    0.511302     0.004307
NI3289   NI        0.563129    0.209206    0.554090     0.004307
NI3290   NI        0.595223    0.177289    0.552662     0.004307
NI3291   NI        0.588259    0.222524    0.511731     0.004307
NI3292   NI        0.628634    0.181024    0.521449     0.004307
NI3293   NI        0.629796    0.211945    0.556276     0.004307
CU3294   CU        0.661130    0.179735    0.553318     0.006663
NI3295   NI        0.664220    0.211119    0.519991     0.004307
NI3296   NI        0.693966    0.180315    0.520550     0.004307
NI3297   NI        0.693233    0.213224    0.552184     0.004307
NI3298   NI        0.724833    0.183329    0.553156     0.004307
NI3299   NI        0.726928    0.214121    0.515904     0.004307
NI3300   NI        0.756566    0.182289    0.513541     0.004307
NI3301   NI        0.755599    0.213758    0.548458     0.004307
NI3302   NI        0.784186    0.215888    0.514718     0.004307
NI3303   NI        0.047928    0.249279    0.517099     0.004307
NI3304   NI        0.049999    0.277184    0.553155     0.004307
NI3305   NI        0.077091    0.244643    0.552656     0.004307
NI3306   NI        0.078012    0.279257    0.517945     0.004307
NI3307   NI        0.107420    0.246506    0.518738     0.004307
NI3308   NI        0.108559    0.278495    0.552384     0.004307
CU3309   CU        0.139129    0.244652    0.552302     0.006663
NI3310   NI        0.139011    0.274663    0.516991     0.004307
NI3311   NI        0.168395    0.241325    0.519424     0.004307
CU3312   CU        0.167501    0.277765    0.554535     0.006663
NI3313   NI        0.200603    0.242542    0.552714     0.004307
NI3314   NI        0.210654    0.288898    0.511082     0.004307
NI3315   NI        0.231785    0.248670    0.518322     0.004307
NI3316   NI        0.242260    0.287711    0.541627     0.004307
CU3317   CU        0.273842    0.255414    0.542294     0.006663
CU3318   CU        0.275938    0.287279    0.510114     0.006663
CU3319   CU        0.307919    0.254848    0.510575     0.006663
NI3320   NI        0.307211    0.288251    0.544226     0.004307
CU3321   CU        0.336876    0.254795    0.544323     0.006663
CU3322   CU        0.338727    0.286659    0.511279     0.006663
NI3323   NI        0.369355    0.255627    0.510452     0.004307
CU3324   CU        0.369850    0.287106    0.542904     0.006663
CU3325   CU        0.401386    0.253958    0.543643     0.006663
CU3326   CU        0.400019    0.286544    0.510965     0.006663
NI3327   NI        0.431573    0.254185    0.509398     0.004307
CU3328   CU        0.431924    0.288479    0.542892     0.006663
NI3329   NI        0.460927    0.255392    0.544948     0.004307
CU3330   CU        0.463485    0.284910    0.512411     0.006663
CU3331   CU        0.496347    0.255186    0.511805     0.006663
CU3332   CU        0.494340    0.286545    0.545292     0.006663
CU3333   CU        0.524399    0.254785    0.543416     0.006663
CU3334   CU        0.526195    0.286113    0.511868     0.006663
CU3335   CU        0.558798    0.257007    0.514843     0.006663
CU3336   CU        0.555926    0.286556    0.545444     0.006663
NI3337   NI        0.590082    0.259292    0.546029     0.004307
NI3338   NI        0.588688    0.287027    0.511983     0.004307
NI3339   NI        0.618233    0.255969    0.511165     0.004307
CU3340   CU        0.621747    0.286321    0.544912     0.006663
NI3341   NI        0.662266    0.242980    0.552021     0.004307
NI3342   NI        0.651616    0.283765    0.511613     0.004307
NI3343   NI        0.695449    0.241240    0.517840     0.004307
NI3344   NI        0.683194    0.282701    0.547426     0.004307
CU3345   CU        0.726094    0.244042    0.548543     0.006663
NI3346   NI        0.723938    0.274182    0.515893     0.004307
NI3347   NI        0.756174    0.246955    0.514170     0.004307
NI3348   NI        0.754939    0.277524    0.552027     0.004307
NI3349   NI        0.785533    0.247534    0.548813     0.004307
NI3350   NI        0.785670    0.277731    0.514704     0.004307
NI3351   NI        0.818009    0.250023    0.514623     0.004307
CU3352   CU        0.818455    0.277268    0.549812     0.006663
NI3353   NI        0.023011    0.341317    0.519115     0.004307
NI3354   NI        0.049184    0.307939    0.518356     0.004307
NI3355   NI        0.048712    0.342162    0.554431     0.004307
NI3356   NI        0.077855    0.309204    0.553583     0.004307
NI3357   NI        0.080211    0.342553    0.521275     0.004307
NI3358   NI        0.108625    0.309073    0.520898     0.004307
NI3359   NI        0.108996    0.340465    0.554653     0.004307
NI3360   NI        0.138106    0.309168    0.556054     0.004307
CU3361   CU        0.144032    0.337154    0.524484     0.006663
CU3362   CU        0.178049    0.318908    0.510038     0.006663
NI3363   NI        0.180698    0.351513    0.543488     0.004307
CU3364   CU        0.211038    0.320712    0.544311     0.006663
NI3365   NI        0.209957    0.350701    0.509387     0.004307
CU3366   CU        0.247264    0.317750    0.509347     0.006663
NI3367   NI        0.243675    0.349469    0.543841     0.004307
CU3368   CU        0.272372    0.318717    0.545347     0.006663
CU3369   CU        0.276639    0.348497    0.510999     0.006663
CU3370   CU        0.305206    0.319124    0.509589     0.006663
CU3371   CU        0.305022    0.346815    0.546116     0.006663
CU3372   CU        0.337519    0.318098    0.544751     0.006663
CU3373   CU        0.337398    0.347387    0.512098     0.006663
CU3374   CU        0.368847    0.317483    0.511838     0.006663
CU3375   CU        0.369013    0.348798    0.543043     0.006663
CU3376   CU        0.403179    0.318661    0.542772     0.006663
NI3377   NI        0.400123    0.350703    0.511071     0.004307
CU3378   CU        0.435277    0.319130    0.511030     0.006663
CU3379   CU        0.431442    0.350111    0.544019     0.006663
CU3380   CU        0.463920    0.318005    0.543342     0.006663
CU3381   CU        0.465966    0.348779    0.513741     0.006663
CU3382   CU        0.496488    0.317305    0.512438     0.006663
CU3383   CU        0.497031    0.350303    0.545761     0.006663
CU3384   CU        0.526645    0.319568    0.545837     0.006663
CU3385   CU        0.527213    0.349819    0.510738     0.006663
CU3386   CU        0.557069    0.316772    0.513860     0.006663
CU3387   CU        0.558370    0.348482    0.543740     0.006663
CU3388   CU        0.586491    0.316683    0.546453     0.006663
CU3389   CU        0.588841    0.348152    0.508791     0.006663
NI3390   NI        0.620343    0.317243    0.511930     0.004307
CU3391   CU        0.617510    0.349870    0.542847     0.006663
NI3392   NI        0.651966    0.316266    0.545195     0.004307
CU3393   CU        0.649842    0.348029    0.514082     0.006663
NI3394   NI        0.686648    0.313118    0.512833     0.004307
NI3395   NI        0.682165    0.350048    0.547239     0.004307
NI3396   NI        0.713285    0.316143    0.548485     0.004307
NI3397   NI        0.713954    0.349197    0.518387     0.004307
NI3398   NI        0.759640    0.309143    0.514988     0.004307
NI3399   NI        0.763738    0.345308    0.551847     0.004307
NI3400   NI        0.787080    0.308840    0.551443     0.004307
NI3401   NI        0.786621    0.344611    0.514093     0.004307
CU3402   CU        0.815754    0.310051    0.514973     0.006663
NI3403   NI        0.816579    0.340122    0.548430     0.004307
NI3404   NI        0.844848    0.309285    0.551397     0.004307
NI3405   NI        0.022712    0.375659    0.556183     0.004307
NI3406   NI        0.013556    0.413560    0.510612     0.004307
NI3407   NI        0.050484    0.373645    0.519910     0.004307
NI3408   NI        0.037520    0.416036    0.547529     0.004307
NI3409   NI        0.079849    0.372862    0.555682     0.004307
NI3410   NI        0.066243    0.412273    0.514395     0.004307
NI3411   NI        0.096091    0.382881    0.513626     0.004307
NI3412   NI        0.095766    0.410783    0.548952     0.004307
NI3413   NI        0.141283    0.371583    0.555610     0.004307
NI3414   NI        0.152815    0.413839    0.509961     0.004307
CU3415   CU        0.180264    0.382226    0.509832     0.006663
CU3416   CU        0.182650    0.412379    0.545085     0.006663
NI3417   NI        0.212343    0.378836    0.546515     0.004307
CU3418   CU        0.209999    0.412463    0.511884     0.006663
CU3419   CU        0.241804    0.381689    0.509761     0.006663
CU3420   CU        0.242343    0.412254    0.542182     0.006663
CU3421   CU        0.274044    0.382304    0.543887     0.006663
CU3422   CU        0.274545    0.413308    0.511494     0.006663
CU3423   CU        0.306245    0.378661    0.514083     0.006663
CU3424   CU        0.305598    0.411681    0.546439     0.006663
CU3425   CU        0.337883    0.379587    0.544642     0.006663
CU3426   CU        0.337042    0.412737    0.514758     0.006663
CU3427   CU        0.369710    0.381369    0.511050     0.006663
CU3428   CU        0.368446    0.412334    0.544457     0.006663
CU3429   CU        0.400779    0.381794    0.544620     0.006663
CU3430   CU        0.401871    0.411733    0.511257     0.006663
CU3431   CU        0.432593    0.381142    0.511298     0.006663
CU3432   CU        0.434221    0.411406    0.545223     0.006663
CU3433   CU        0.465290    0.382024    0.545255     0.006663
CU3434   CU        0.464442    0.410689    0.511623     0.006663
CU3435   CU        0.494824    0.380896    0.513257     0.006663
CU3436   CU        0.493527    0.413586    0.545615     0.006663
CU3437   CU        0.527942    0.379724    0.544799     0.006663
CU3438   CU        0.525460    0.411083    0.512307     0.006663
CU3439   CU        0.558091    0.382795    0.509358     0.006663
CU3440   CU        0.556171    0.411006    0.545885     0.006663
CU3441   CU        0.588043    0.380950    0.544183     0.006663
CU3442   CU        0.587573    0.415815    0.511387     0.006663
CU3443   CU        0.619877    0.380329    0.509413     0.006663
NI3444   NI        0.618736    0.412001    0.543775     0.004307
CU3445   CU        0.649091    0.378988    0.546642     0.006663
CU3446   CU        0.650119    0.412957    0.512714     0.006663
NI3447   NI        0.680634    0.380030    0.512945     0.004307
CU3448   CU        0.678442    0.412753    0.547613     0.006663
NI3449   NI        0.710023    0.379845    0.549479     0.004307
NI3450   NI        0.729318    0.406673    0.514537     0.004307
NI3451   NI        0.758226    0.377237    0.513749     0.004307
NI3452   NI        0.759868    0.410569    0.549599     0.004307
CU3453   CU        0.789630    0.379354    0.546597     0.006663
NI3454   NI        0.788104    0.411708    0.515356     0.004307
NI3455   NI        0.817875    0.375372    0.513517     0.004307
NI3456   NI        0.818483    0.411779    0.550105     0.004307
NI3457   NI        0.845901    0.377103    0.551283     0.004307
NI3458   NI        0.845755    0.409657    0.513846     0.004307
NI3459   NI        0.010360    0.448324    0.546495     0.004307
NI3460   NI        0.011325    0.475866    0.511101     0.004307
CU3461   CU        0.042194    0.446056    0.514105     0.006663
NI3462   NI        0.040522    0.480980    0.549450     0.004307
NI3463   NI        0.070025    0.446626    0.548742     0.004307
NI3464   NI        0.071782    0.476208    0.512522     0.004307
NI3465   NI        0.095872    0.441084    0.514913     0.004307
NI3466   NI        0.099300    0.478717    0.548794     0.004307
NI3467   NI        0.152062    0.442726    0.544236     0.004307
NI3468   NI        0.151052    0.472222    0.510713     0.004307
CU3469   CU        0.182090    0.443380    0.511841     0.006663
NI3470   NI        0.178491    0.475036    0.546400     0.004307
CU3471   CU        0.211280    0.444613    0.544430     0.006663
CU3472   CU        0.210065    0.474152    0.511215     0.006663
CU3473   CU        0.242981    0.443769    0.510373     0.006663
CU3474   CU        0.241250    0.474787    0.545646     0.006663
NI3475   NI        0.271539    0.441404    0.544912     0.004307
CU3476   CU        0.272964    0.473429    0.509340     0.006663
NI3477   NI        0.304975    0.443338    0.513928     0.004307
NI3478   NI        0.305452    0.477083    0.547004     0.004307
CU3479   CU        0.336519    0.443328    0.547664     0.006663
NI3480   NI        0.337734    0.476045    0.511867     0.004307
CU3481   CU        0.368783    0.444148    0.511826     0.006663
CU3482   CU        0.368433    0.474057    0.545942     0.006663
CU3483   CU        0.399475    0.443493    0.544368     0.006663
CU3484   CU        0.401461    0.474353    0.512696     0.006663
CU3485   CU        0.432445    0.441951    0.514480     0.006663
CU3486   CU        0.430734    0.474050    0.546831     0.006663
CU3487   CU        0.461707    0.444191    0.546134     0.006663
CU3488   CU        0.461877    0.475964    0.513516     0.006663
CU3489   CU        0.492466    0.445011    0.511337     0.006663
CU3490   CU        0.491186    0.475343    0.547002     0.006663
CU3491   CU        0.524020    0.443120    0.544486     0.006663
CU3492   CU        0.525759    0.473594    0.512683     0.006663
CU3493   CU        0.553835    0.442393    0.513641     0.006663
NI3494   NI        0.556880    0.475363    0.546183     0.004307
CU3495   CU        0.587975    0.444451    0.544627     0.006663
CU3496   CU        0.588637    0.475465    0.512975     0.006663
CU3497   CU        0.619733    0.445143    0.511357     0.006663
NI3498   NI        0.620124    0.473252    0.544861     0.004307
CU3499   CU        0.650731    0.442484    0.547100     0.006663
NI3500   NI        0.651513    0.475103    0.512159     0.004307
NI3501   NI        0.680395    0.443603    0.511957     0.004307
NI3502   NI        0.681507    0.474693    0.545473     0.004307
NI3503   NI        0.710406    0.444068    0.547060     0.004307
CU3504   CU        0.711443    0.475307    0.512507     0.006663
CU3505   CU        0.759018    0.442778    0.514302     0.006663
NI3506   NI        0.759028    0.478673    0.550410     0.004307
NI3507   NI        0.787509    0.443508    0.548827     0.004307
NI3508   NI        0.789173    0.474974    0.517224     0.004307
NI3509   NI        0.818406    0.443665    0.516415     0.004307
NI3510   NI        0.817117    0.475752    0.553051     0.004307
NI3511   NI        0.846807    0.441757    0.549591     0.004307
NI3512   NI        0.846916    0.476035    0.518828     0.004307
CU3513   CU        0.013279    0.512224    0.552101     0.006663
CU3514   CU        0.009935    0.537164    0.515334     0.006663
CU3515   CU        0.039807    0.507992    0.515492     0.006663
NI3516   NI        0.043372    0.543819    0.551525     0.004307
CU3517   CU        0.070461    0.510287    0.550149     0.006663
NI3518   NI        0.069094    0.540748    0.515778     0.004307
CU3519   CU        0.099406    0.509984    0.516706     0.006663
NI3520   NI        0.101339    0.540032    0.552702     0.004307
CU3521   CU        0.129895    0.511076    0.552532     0.006663
CU3522   CU        0.128349    0.541146    0.515440     0.006663
NI3523   NI        0.181644    0.504954    0.509402     0.004307
NI3524   NI        0.180543    0.536616    0.549087     0.004307
NI3525   NI        0.209934    0.504653    0.545369     0.004307
CU3526   CU        0.208372    0.537743    0.511731     0.006663
NI3527   NI        0.242151    0.506860    0.510859     0.004307
CU3528   CU        0.238851    0.537755    0.544169     0.006663
CU3529   CU        0.272266    0.507315    0.544619     0.006663
CU3530   CU        0.272531    0.538014    0.510586     0.006663
CU3531   CU        0.305360    0.508372    0.510211     0.006663
NI3532   NI        0.305591    0.539412    0.543544     0.004307
CU3533   CU        0.337408    0.506896    0.544504     0.006663
CU3534   CU        0.337531    0.536926    0.510959     0.006663
CU3535   CU        0.366935    0.506309    0.510162     0.006663
CU3536   CU        0.369025    0.537833    0.546824     0.006663
CU3537   CU        0.401250    0.507412    0.546829     0.006663
CU3538   CU        0.399713    0.537334    0.514314     0.006663
NI3539   NI        0.432673    0.506761    0.512598     0.004307
CU3540   CU        0.432724    0.538753    0.545218     0.006663
CU3541   CU        0.461581    0.506610    0.545895     0.006663
CU3542   CU        0.463126    0.536940    0.514765     0.006663
CU3543   CU        0.491861    0.504285    0.513242     0.006663
CU3544   CU        0.495004    0.534969    0.545928     0.006663
CU3545   CU        0.525430    0.504494    0.547011     0.006663
CU3546   CU        0.524501    0.537338    0.511897     0.006663
CU3547   CU        0.556799    0.505539    0.513733     0.006663
NI3548   NI        0.559175    0.536469    0.546797     0.004307
NI3549   NI        0.588468    0.505026    0.545363     0.004307
NI3550   NI        0.589393    0.535980    0.514030     0.004307
NI3551   NI        0.619623    0.506498    0.513348     0.004307
CU3552   CU        0.618246    0.537262    0.544807     0.006663
NI3553   NI        0.650952    0.504681    0.546200     0.004307
CU3554   CU        0.651862    0.535379    0.511017     0.006663
CU3555   CU        0.682699    0.504523    0.512406     0.006663
NI3556   NI        0.681925    0.536212    0.544659     0.004307
NI3557   NI        0.732456    0.512363    0.552899     0.004307
NI3558   NI        0.713308    0.535018    0.514072     0.004307
NI3559   NI        0.759609    0.508597    0.518543     0.004307
NI3560   NI        0.760785    0.544003    0.554956     0.004307
CU3561   CU        0.789818    0.508014    0.551609     0.006663
NI3562   NI        0.787947    0.540868    0.517328     0.004307
NI3563   NI        0.818290    0.508394    0.517445     0.004307
CU3564   CU        0.818913    0.543105    0.550357     0.006663
NI3565   NI        0.845800    0.508313    0.552898     0.004307
NI3566   NI        0.847938    0.540345    0.515083     0.004307
NI3567   NI        0.037163    0.569771    0.514749     0.004307
NI3568   NI        0.049191    0.610069    0.553975     0.004307
CU3569   CU        0.074119    0.575269    0.552663     0.006663
NI3570   NI        0.068442    0.599378    0.515671     0.004307
NI3571   NI        0.099077    0.570757    0.514941     0.004307
CU3572   CU        0.103459    0.607077    0.551411     0.006663
NI3573   NI        0.132492    0.573686    0.552890     0.004307
NI3574   NI        0.147277    0.601983    0.510954     0.004307
NI3575   NI        0.178467    0.570923    0.512066     0.004307
NI3576   NI        0.176395    0.598065    0.545222     0.004307
CU3577   CU        0.207556    0.568429    0.545231     0.006663
NI3578   NI        0.209457    0.601732    0.512099     0.004307
CU3579   CU        0.238701    0.568499    0.512691     0.006663
CU3580   CU        0.239290    0.598717    0.544604     0.006663
CU3581   CU        0.271785    0.567196    0.545188     0.006663
NI3582   NI        0.272107    0.600095    0.511272     0.004307
CU3583   CU        0.303896    0.571235    0.512513     0.006663
CU3584   CU        0.303914    0.599746    0.547037     0.006663
CU3585   CU        0.336010    0.568541    0.547535     0.006663
CU3586   CU        0.336650    0.600106    0.513147     0.006663
NI3587   NI        0.368086    0.567450    0.514665     0.004307
CU3588   CU        0.366672    0.599638    0.546734     0.006663
CU3589   CU        0.398373    0.567434    0.546502     0.006663
CU3590   CU        0.396874    0.599604    0.513577     0.006663
CU3591   CU        0.429642    0.569929    0.513785     0.006663
CU3592   CU        0.430488    0.599403    0.547553     0.006663
CU3593   CU        0.463600    0.569341    0.547242     0.006663
CU3594   CU        0.463062    0.599959    0.513803     0.006663
CU3595   CU        0.493772    0.567292    0.512308     0.006663
NI3596   NI        0.493552    0.600912    0.544909     0.004307
CU3597   CU        0.525545    0.568493    0.546250     0.006663
CU3598   CU        0.524161    0.600243    0.510544     0.006663
NI3599   NI        0.556880    0.568901    0.514136     0.004307
CU3600   CU        0.558178    0.600501    0.549933     0.006663
CU3601   CU        0.588843    0.567927    0.547712     0.006663
CU3602   CU        0.586366    0.597823    0.512618     0.006663
CU3603   CU        0.617527    0.568352    0.514232     0.006663
NI3604   NI        0.620097    0.598275    0.547140     0.004307
NI3605   NI        0.649364    0.566199    0.545957     0.004307
CU3606   CU        0.651216    0.598510    0.510636     0.006663
CU3607   CU        0.682561    0.567151    0.512894     0.006663
NI3608   NI        0.699762    0.609174    0.553331     0.004307
NI3609   NI        0.729138    0.576728    0.555115     0.004307
CU3610   CU        0.731533    0.604690    0.519970     0.006663
NI3611   NI        0.761620    0.575645    0.521118     0.004307
NI3612   NI        0.758095    0.608955    0.552401     0.004307
NI3613   NI        0.790754    0.574834    0.554042     0.004307
CU3614   CU        0.790921    0.607388    0.516868     0.006663
NI3615   NI        0.817846    0.571794    0.516563     0.004307
CU3616   CU        0.817875    0.609517    0.555488     0.006663
NI3617   NI        0.048696    0.640817    0.521627     0.004307
CU3618   CU        0.077972    0.641512    0.554870     0.006663
NI3619   NI        0.077660    0.672604    0.517798     0.004307
NI3620   NI        0.107152    0.642923    0.518014     0.004307
NI3621   NI        0.108383    0.673599    0.549545     0.004307
NI3622   NI        0.135468    0.641167    0.552996     0.004307
NI3623   NI        0.138918    0.676757    0.514355     0.004307
CU3624   CU        0.178261    0.630411    0.512786     0.006663
NI3625   NI        0.167901    0.674254    0.551426     0.004307
CU3626   CU        0.210382    0.630582    0.546677     0.006663
NI3627   NI        0.206605    0.660806    0.512927     0.004307
CU3628   CU        0.238699    0.632657    0.511532     0.006663
NI3629   NI        0.240674    0.660313    0.547837     0.004307
NI3630   NI        0.269955    0.632142    0.546373     0.004307
NI3631   NI        0.272347    0.662110    0.511938     0.004307
NI3632   NI        0.303617    0.631272    0.513316     0.004307
NI3633   NI        0.303297    0.660522    0.545501     0.004307
CU3634   CU        0.335951    0.630877    0.543846     0.006663
NI3635   NI        0.334492    0.661034    0.512276     0.004307
CU3636   CU        0.366238    0.629923    0.511605     0.006663
CU3637   CU        0.366024    0.660759    0.543834     0.006663
CU3638   CU        0.396791    0.631128    0.544936     0.006663
CU3639   CU        0.399116    0.663677    0.514002     0.006663
NI3640   NI        0.429997    0.629444    0.512321     0.004307
NI3641   NI        0.430344    0.659748    0.543546     0.004307
CU3642   CU        0.461965    0.630831    0.547531     0.006663
CU3643   CU        0.462891    0.661029    0.513370     0.006663
CU3644   CU        0.493518    0.629213    0.512864     0.006663
NI3645   NI        0.495484    0.662962    0.547567     0.004307
NI3646   NI        0.525863    0.630873    0.547952     0.004307
CU3647   CU        0.525232    0.661412    0.511865     0.006663
NI3648   NI        0.555775    0.630185    0.513215     0.004307
CU3649   CU        0.556836    0.661591    0.545418     0.006663
CU3650   CU        0.586527    0.631913    0.546117     0.006663
NI3651   NI        0.587793    0.661074    0.513517     0.004307
NI3652   NI        0.617375    0.630082    0.513818     0.004307
NI3653   NI        0.620577    0.659950    0.546339     0.004307
NI3654   NI        0.650316    0.628734    0.546150     0.004307
NI3655   NI        0.663957    0.676811    0.517665     0.004307
NI3656   NI        0.679325    0.632386    0.512320     0.004307
NI3657   NI        0.693198    0.673555    0.551906     0.004307
NI3658   NI        0.728449    0.639951    0.551953     0.004307
CU3659   CU        0.728469    0.672770    0.516686     0.006663
CU3660   CU        0.758420    0.640290    0.516175     0.006663
CU3661   CU        0.758485    0.669922    0.549712     0.006663
NI3662   NI        0.788469    0.639906    0.550021     0.004307
NI3663   NI        0.784766    0.672629    0.514331     0.004307
CU3664   CU        0.816805    0.641674    0.519170     0.006663
NI3665   NI        0.107425    0.705520    0.517892     0.004307
NI3666   NI        0.109700    0.736081    0.554710     0.004307
NI3667   NI        0.138712    0.702973    0.553193     0.004307
NI3668   NI        0.139226    0.737920    0.514807     0.004307
NI3669   NI        0.170073    0.707880    0.515286     0.004307
CU3670   CU        0.169500    0.735829    0.549763     0.006663
CU3671   CU        0.199621    0.704860    0.549797     0.006663
CU3672   CU        0.200415    0.737627    0.515854     0.006663
NI3673   NI        0.232896    0.710160    0.515817     0.004307
NI3674   NI        0.232118    0.739184    0.548359     0.004307
NI3675   NI        0.271715    0.690037    0.548154     0.004307
NI3676   NI        0.264910    0.740005    0.516165     0.004307
NI3677   NI        0.303127    0.692207    0.510953     0.004307
NI3678   NI        0.297720    0.743927    0.552170     0.004307
NI3679   NI        0.333728    0.690690    0.544499     0.004307
NI3680   NI        0.333141    0.723273    0.506750     0.004307
NI3681   NI        0.366347    0.692850    0.510690     0.004307
NI3682   NI        0.366532    0.742838    0.552392     0.004307
CU3683   CU        0.400210    0.710970    0.550289     0.006663
NI3684   NI        0.400612    0.741350    0.516912     0.004307
NI3685   NI        0.432310    0.712210    0.516761     0.004307
CU3686   CU        0.428936    0.742969    0.552539     0.006663
CU3687   CU        0.461704    0.713528    0.551700     0.006663
NI3688   NI        0.462547    0.744325    0.518048     0.004307
NI3689   NI        0.495178    0.691591    0.511623     0.004307
NI3690   NI        0.496395    0.743675    0.552456     0.004307
NI3691   NI        0.527723    0.693891    0.545734     0.004307
NI3692   NI        0.527325    0.721474    0.510223     0.004307
NI3693   NI        0.557247    0.690609    0.512881     0.004307
NI3694   NI        0.562204    0.722419    0.541734     0.004307
CU3695   CU        0.589752    0.690863    0.543596     0.006663
NI3696   NI        0.594974    0.738772    0.517449     0.004307
NI3697   NI        0.620693    0.691901    0.512509     0.004307
NI3698   NI        0.628842    0.739849    0.552443     0.004307
NI3699   NI        0.662238    0.705947    0.552815     0.004307
CU3700   CU        0.664605    0.737389    0.518360     0.006663
NI3701   NI        0.694879    0.707732    0.518851     0.004307
NI3702   NI        0.692173    0.736416    0.552573     0.004307
NI3703   NI        0.724660    0.704484    0.551280     0.004307
CU3704   CU        0.725438    0.737428    0.515361     0.006663
CU3705   CU        0.756091    0.706382    0.515024     0.006663
CU3706   CU        0.756579    0.733704    0.549951     0.006663
NI3707   NI        0.140764    0.766933    0.552154     0.004307
NI3708   NI        0.169842    0.767143    0.516196     0.004307
NI3709   NI        0.200340    0.767870    0.550655     0.004307
NI3710   NI        0.201873    0.796209    0.515136     0.004307
NI3711   NI        0.234348    0.767805    0.514931     0.004307
CU3712   CU        0.232507    0.797459    0.550030     0.006663
CU3713   CU        0.262411    0.770433    0.552585     0.006663
NI3714   NI        0.266454    0.797830    0.513775     0.004307
NI3715   NI        0.296050    0.769608    0.516643     0.004307
NI3716   NI        0.298666    0.799016    0.550971     0.004307
NI3717   NI        0.331786    0.769617    0.552085     0.004307
NI3718   NI        0.331367    0.797612    0.517277     0.004307
NI3719   NI        0.367183    0.770083    0.516852     0.004307
CU3720   CU        0.363676    0.800440    0.549962     0.006663
NI3721   NI        0.396664    0.770793    0.550982     0.004307
NI3722   NI        0.397289    0.798267    0.515324     0.004307
NI3723   NI        0.430921    0.773621    0.514759     0.004307
NI3724   NI        0.431718    0.799544    0.550892     0.004307
NI3725   NI        0.462612    0.771950    0.552455     0.004307
NI3726   NI        0.465521    0.799815    0.514785     0.004307
NI3727   NI        0.497384    0.771736    0.516608     0.004307
NI3728   NI        0.500201    0.802759    0.550665     0.004307
NI3729   NI        0.529587    0.772219    0.551116     0.004307
CU3730   CU        0.529907    0.799444    0.515625     0.006663
NI3731   NI        0.564580    0.770156    0.517387     0.004307
NI3732   NI        0.561629    0.800700    0.549158     0.004307
CU3733   CU        0.597329    0.769740    0.551864     0.006663
NI3734   NI        0.596090    0.798885    0.518549     0.004307
NI3735   NI        0.627758    0.769678    0.517453     0.004307
NI3736   NI        0.629111    0.799620    0.551793     0.004307
CU3737   CU        0.659390    0.768383    0.551165     0.006663
CU3738   CU        0.660024    0.797297    0.517998     0.006663
NI3739   NI        0.693094    0.768220    0.516523     0.004307
NI3740   NI        0.690461    0.796138    0.551077     0.004307
NI3741   NI        0.233819    0.825322    0.513405     0.004307
NI3742   NI        0.266093    0.826273    0.548722     0.004307
NI3743   NI        0.301629    0.826650    0.512547     0.004307
NI3744   NI        0.330359    0.828090    0.547443     0.004307
NI3745   NI        0.330044    0.858537    0.516473     0.004307
NI3746   NI        0.364709    0.830877    0.516194     0.004307
NI3747   NI        0.365790    0.858172    0.553108     0.004307
NI3748   NI        0.397636    0.826831    0.549893     0.004307
NI3749   NI        0.398580    0.856693    0.515586     0.004307
CU3750   CU        0.433491    0.829066    0.516590     0.006663
NI3751   NI        0.431976    0.854118    0.550141     0.004307
NI3752   NI        0.464069    0.827554    0.551407     0.004307
NI3753   NI        0.464062    0.856774    0.516681     0.004307
NI3754   NI        0.496374    0.828900    0.516504     0.004307
NI3755   NI        0.496533    0.859083    0.552582     0.004307
NI3756   NI        0.530838    0.830789    0.551824     0.004307
NI3757   NI        0.528861    0.857826    0.513048     0.004307
NI3758   NI        0.560997    0.830152    0.517214     0.004307
NI3759   NI        0.593360    0.827139    0.550698     0.004307
NI3760   NI        0.662409    0.827034    0.549516     0.004307
NI3761   NI        0.398462    0.029497    0.585529     0.004307
NI3762   NI        0.463716    0.028886    0.585119     0.004307
NI3763   NI        0.201367    0.092095    0.583090     0.004307
NI3764   NI        0.234604    0.090428    0.619465     0.004307
NI3765   NI        0.268745    0.089154    0.584627     0.004307
NI3766   NI        0.300712    0.058617    0.585182     0.004307
NI3767   NI        0.300060    0.088843    0.620704     0.004307
NI3768   NI        0.334313    0.059063    0.619933     0.004307
NI3769   NI        0.332047    0.088203    0.585560     0.004307
CU3770   CU        0.367384    0.058408    0.586237     0.006663
CU3771   CU        0.364984    0.087897    0.621363     0.006663
NI3772   NI        0.399267    0.057112    0.619905     0.004307
CU3773   CU        0.396900    0.089731    0.586776     0.006663
NI3774   NI        0.431544    0.058368    0.587945     0.004307
NI3775   NI        0.433468    0.088226    0.621391     0.004307
NI3776   NI        0.463801    0.058764    0.619686     0.004307
NI3777   NI        0.465192    0.088757    0.585261     0.004307
NI3778   NI        0.498880    0.059516    0.586199     0.004307
NI3779   NI        0.496781    0.090214    0.620426     0.004307
NI3780   NI        0.529240    0.057716    0.621225     0.004307
NI3781   NI        0.529620    0.087973    0.588772     0.004307
NI3782   NI        0.562901    0.056965    0.587133     0.004307
NI3783   NI        0.560920    0.088099    0.621337     0.004307
NI3784   NI        0.597285    0.087557    0.586848     0.004307
NI3785   NI        0.629219    0.088206    0.616396     0.004307
CU3786   CU        0.660894    0.090614    0.587537     0.006663
NI3787   NI        0.139812    0.153062    0.582541     0.004307
NI3788   NI        0.169351    0.120038    0.586114     0.004307
NI3789   NI        0.171198    0.151988    0.618168     0.004307
NI3790   NI        0.203683    0.121524    0.616463     0.004307
NI3791   NI        0.200562    0.150662    0.583851     0.004307
NI3792   NI        0.234955    0.118960    0.583647     0.004307
NI3793   NI        0.234857    0.150073    0.615505     0.004307
NI3794   NI        0.266301    0.120167    0.617061     0.004307
CU3795   CU        0.265409    0.150233    0.584467     0.006663
NI3796   NI        0.299369    0.119034    0.583900     0.004307
NI3797   NI        0.299231    0.146286    0.618102     0.004307
NI3798   NI        0.333242    0.117235    0.622097     0.004307
CU3799   CU        0.331499    0.162732    0.583404     0.006663
CU3800   CU        0.363450    0.114892    0.586672     0.006663
CU3801   CU        0.363496    0.146337    0.618179     0.006663
CU3802   CU        0.395319    0.117744    0.623359     0.006663
CU3803   CU        0.396250    0.141132    0.586917     0.006663
CU3804   CU        0.430873    0.117605    0.582974     0.006663
NI3805   NI        0.429979    0.144627    0.618288     0.004307
NI3806   NI        0.462774    0.119258    0.622091     0.004307
NI3807   NI        0.464543    0.146247    0.582944     0.004307
CU3808   CU        0.497911    0.120953    0.585315     0.006663
NI3809   NI        0.498423    0.146356    0.622558     0.004307
NI3810   NI        0.530290    0.119983    0.622866     0.004307
CU3811   CU        0.533125    0.148293    0.589214     0.006663
CU3812   CU        0.564660    0.117703    0.588034     0.006663
CU3813   CU        0.563576    0.150531    0.623071     0.006663
NI3814   NI        0.595765    0.117308    0.618794     0.004307
CU3815   CU        0.595754    0.148511    0.586002     0.006663
NI3816   NI        0.629442    0.119777    0.587077     0.004307
CU3817   CU        0.628484    0.147611    0.623354     0.006663
NI3818   NI        0.661312    0.119817    0.618592     0.004307
CU3819   CU        0.661102    0.149572    0.584457     0.006663
NI3820   NI        0.691742    0.120857    0.586583     0.004307
NI3821   NI        0.690064    0.153639    0.618756     0.004307
NI3822   NI        0.723146    0.152135    0.586667     0.004307
CU3823   CU        0.078914    0.214063    0.587432     0.006663
NI3824   NI        0.108575    0.183672    0.582732     0.004307
NI3825   NI        0.109436    0.216782    0.618765     0.004307
NI3826   NI        0.139362    0.185512    0.614922     0.004307
CU3827   CU        0.137708    0.214449    0.585845     0.006663
NI3828   NI        0.169632    0.182391    0.583974     0.004307
CU3829   CU        0.169194    0.217230    0.618786     0.006663
NI3830   NI        0.202093    0.184605    0.616998     0.004307
CU3831   CU        0.201912    0.214678    0.585264     0.006663
NI3832   NI        0.232771    0.181112    0.583883     0.004307
NI3833   NI        0.231913    0.217157    0.620617     0.004307
NI3834   NI        0.265165    0.183096    0.624664     0.004307
NI3835   NI        0.274941    0.222181    0.577705     0.004307
NI3836   NI        0.304686    0.191754    0.577731     0.004307
NI3837   NI        0.294909    0.213073    0.619273     0.004307
NI3838   NI        0.334108    0.196219    0.610249     0.004307
NI3839   NI        0.336104    0.226175    0.577759     0.004307
CU3840   CU        0.365505    0.193410    0.579690     0.006663
CU3841   CU        0.369933    0.225096    0.610770     0.006663
NI3842   NI        0.398863    0.194140    0.611427     0.004307
CU3843   CU        0.398614    0.224210    0.578423     0.006663
CU3844   CU        0.427650    0.174197    0.586531     0.006663
NI3845   NI        0.430751    0.225198    0.612262     0.004307
NI3846   NI        0.461173    0.174690    0.620206     0.004307
NI3847   NI        0.464179    0.226327    0.579485     0.004307
NI3848   NI        0.495331    0.194563    0.577817     0.004307
NI3849   NI        0.496354    0.224556    0.611744     0.004307
CU3850   CU        0.536088    0.180707    0.622557     0.006663
NI3851   NI        0.533086    0.212839    0.590220     0.004307
NI3852   NI        0.565920    0.178805    0.588595     0.004307
NI3853   NI        0.566100    0.209901    0.623044     0.004307
NI3854   NI        0.597233    0.181136    0.624210     0.004307
NI3855   NI        0.595698    0.209787    0.588670     0.004307
NI3856   NI        0.630271    0.179248    0.586298     0.004307
CU3857   CU        0.628152    0.213562    0.622441     0.006663
CU3858   CU        0.658864    0.183479    0.619895     0.006663
NI3859   NI        0.662405    0.212922    0.587202     0.004307
CU3860   CU        0.692701    0.183819    0.586066     0.006663
CU3861   CU        0.692779    0.215852    0.618536     0.006663
NI3862   NI        0.722761    0.186514    0.619543     0.004307
NI3863   NI        0.725206    0.215775    0.586321     0.004307
NI3864   NI        0.753237    0.187163    0.587115     0.004307
NI3865   NI        0.754399    0.216330    0.618236     0.004307
NI3866   NI        0.784302    0.216365    0.582483     0.004307
NI3867   NI        0.078776    0.246920    0.617886     0.004307
NI3868   NI        0.076647    0.278735    0.589910     0.004307
NI3869   NI        0.107089    0.246629    0.585474     0.004307
NI3870   NI        0.109136    0.279488    0.622237     0.004307
NI3871   NI        0.137192    0.247627    0.618473     0.004307
CU3872   CU        0.138479    0.277951    0.586740     0.006663
NI3873   NI        0.169687    0.245733    0.585544     0.004307
NI3874   NI        0.170085    0.280053    0.622713     0.004307
NI3875   NI        0.199263    0.244959    0.620219     0.004307
CU3876   CU        0.200954    0.274686    0.585176     0.006663
NI3877   NI        0.231478    0.244542    0.587377     0.004307
CU3878   CU        0.242476    0.287394    0.612844     0.006663
CU3879   CU        0.267959    0.247064    0.615817     0.006663
NI3880   NI        0.273005    0.286639    0.578132     0.004307
CU3881   CU        0.304720    0.256838    0.574938     0.006663
NI3882   NI        0.303387    0.286769    0.609848     0.004307
NI3883   NI        0.340354    0.256895    0.608536     0.004307
CU3884   CU        0.337087    0.288706    0.576548     0.006663
CU3885   CU        0.370020    0.255905    0.577328     0.006663
CU3886   CU        0.370317    0.286331    0.609209     0.006663
CU3887   CU        0.400999    0.256692    0.610905     0.006663
NI3888   NI        0.402363    0.285487    0.576321     0.004307
CU3889   CU        0.430656    0.254451    0.579569     0.006663
NI3890   NI        0.431873    0.286499    0.611186     0.004307
CU3891   CU        0.462119    0.255738    0.612036     0.006663
CU3892   CU        0.461159    0.287084    0.576627     0.006663
NI3893   NI        0.492509    0.257584    0.577292     0.004307
CU3894   CU        0.492742    0.288290    0.611871     0.006663
NI3895   NI        0.534920    0.245169    0.622544     0.004307
CU3896   CU        0.525267    0.288057    0.578562     0.006663
NI3897   NI        0.567220    0.243479    0.589379     0.004307
NI3898   NI        0.567150    0.275893    0.622126     0.004307
NI3899   NI        0.596443    0.241054    0.624355     0.004307
NI3900   NI        0.587099    0.286355    0.578316     0.004307
NI3901   NI        0.628821    0.242977    0.589234     0.004307
NI3902   NI        0.628716    0.275289    0.623672     0.004307
NI3903   NI        0.662481    0.246297    0.621057     0.004307
NI3904   NI        0.647484    0.287939    0.581420     0.004307
CU3905   CU        0.696680    0.246168    0.580938     0.006663
NI3906   NI        0.692836    0.280211    0.623641     0.004307
CU3907   CU        0.725008    0.246750    0.617636     0.006663
NI3908   NI        0.728839    0.275213    0.587388     0.004307
NI3909   NI        0.755874    0.244533    0.584751     0.004307
NI3910   NI        0.759040    0.275975    0.620269     0.004307
NI3911   NI        0.785786    0.245260    0.620882     0.004307
CU3912   CU        0.787367    0.278458    0.583405     0.006663
NI3913   NI        0.049351    0.312277    0.587803     0.004307
NI3914   NI        0.050141    0.341778    0.620051     0.004307
CU3915   CU        0.077537    0.310442    0.620697     0.006663
NI3916   NI        0.078750    0.341730    0.586016     0.004307
NI3917   NI        0.107672    0.309279    0.587583     0.004307
CU3918   CU        0.107997    0.341701    0.623108     0.006663
CU3919   CU        0.137493    0.310185    0.623014     0.006663
NI3920   NI        0.137224    0.340996    0.590699     0.004307
CU3921   CU        0.168949    0.311607    0.590524     0.006663
NI3922   NI        0.167588    0.341938    0.626617     0.004307
CU3923   CU        0.212288    0.318880    0.612833     0.006663
NI3924   NI        0.211705    0.349969    0.578470     0.004307
CU3925   CU        0.240778    0.318164    0.579167     0.006663
CU3926   CU        0.242414    0.348927    0.612489     0.006663
CU3927   CU        0.272931    0.317617    0.612439     0.006663
NI3928   NI        0.274654    0.350036    0.578883     0.004307
CU3929   CU        0.303776    0.318681    0.580733     0.006663
CU3930   CU        0.304483    0.349736    0.613771     0.006663
CU3931   CU        0.337447    0.318683    0.612255     0.006663
CU3932   CU        0.337755    0.349411    0.578813     0.006663
CU3933   CU        0.371813    0.317574    0.576906     0.006663
CU3934   CU        0.369559    0.350969    0.612482     0.006663
CU3935   CU        0.401984    0.317111    0.611870     0.006663
CU3936   CU        0.399318    0.348674    0.575027     0.006663
CU3937   CU        0.431803    0.319372    0.578157     0.006663
CU3938   CU        0.432343    0.349640    0.613093     0.006663
CU3939   CU        0.460556    0.317954    0.612133     0.006663
CU3940   CU        0.461973    0.349931    0.578678     0.006663
NI3941   NI        0.493707    0.320080    0.579455     0.004307
CU3942   CU        0.494029    0.349299    0.612626     0.006663
CU3943   CU        0.524299    0.320144    0.612288     0.006663
CU3944   CU        0.524227    0.349298    0.580050     0.006663
NI3945   NI        0.555050    0.318714    0.577471     0.004307
CU3946   CU        0.556014    0.349857    0.613950     0.006663
NI3947   NI        0.587037    0.319503    0.609982     0.004307
CU3948   CU        0.588466    0.349844    0.578886     0.006663
CU3949   CU        0.619844    0.319588    0.576635     0.006663
NI3950   NI        0.620352    0.348839    0.612358     0.004307
CU3951   CU        0.649870    0.319675    0.612296     0.006663
CU3952   CU        0.650771    0.350090    0.581297     0.006663
NI3953   NI        0.683030    0.318124    0.578392     0.004307
NI3954   NI        0.681539    0.350073    0.616238     0.004307
NI3955   NI        0.729889    0.307643    0.622416     0.004307
NI3956   NI        0.711465    0.349239    0.582148     0.004307
NI3957   NI        0.760963    0.309519    0.587793     0.004307
NI3958   NI        0.761878    0.341359    0.620196     0.004307
NI3959   NI        0.789723    0.309050    0.621439     0.004307
NI3960   NI        0.791828    0.340114    0.587788     0.004307
NI3961   NI        0.817300    0.307014    0.584999     0.004307
NI3962   NI        0.818344    0.341321    0.622591     0.004307
NI3963   NI        0.023231    0.407949    0.587428     0.004307
NI3964   NI        0.047960    0.375171    0.592274     0.004307
NI3965   NI        0.047074    0.408920    0.623361     0.004307
NI3966   NI        0.078315    0.374008    0.622504     0.004307
CU3967   CU        0.064771    0.412359    0.581930     0.006663
NI3968   NI        0.108275    0.373506    0.588984     0.004307
NI3969   NI        0.108166    0.410302    0.622949     0.004307
NI3970   NI        0.135002    0.374689    0.623554     0.004307
NI3971   NI        0.137767    0.403840    0.588036     0.004307
CU3972   CU        0.179691    0.378626    0.578034     0.006663
NI3973   NI        0.180315    0.410035    0.611442     0.004307
NI3974   NI        0.211883    0.380810    0.609631     0.004307
CU3975   CU        0.210858    0.412288    0.577945     0.006663
NI3976   NI        0.241420    0.380618    0.578493     0.004307
NI3977   NI        0.241602    0.411498    0.611500     0.004307
NI3978   NI        0.274051    0.381445    0.612263     0.004307
CU3979   CU        0.273701    0.413384    0.577793     0.006663
CU3980   CU        0.304974    0.380256    0.579787     0.006663
NI3981   NI        0.306465    0.411911    0.613857     0.004307
CU3982   CU        0.338592    0.380654    0.611032     0.006663
CU3983   CU        0.334928    0.413307    0.579833     0.006663
CU3984   CU        0.370231    0.382119    0.577355     0.006663
CU3985   CU        0.366622    0.413936    0.612108     0.006663
CU3986   CU        0.400488    0.380085    0.611336     0.006663
CU3987   CU        0.398984    0.413564    0.579393     0.006663
CU3988   CU        0.432369    0.381050    0.577157     0.006663
CU3989   CU        0.433848    0.411884    0.610344     0.006663
CU3990   CU        0.463976    0.379976    0.613299     0.006663
NI3991   NI        0.463782    0.411688    0.578095     0.004307
CU3992   CU        0.495470    0.381058    0.579289     0.006663
NI3993   NI        0.492630    0.413117    0.613813     0.004307
CU3994   CU        0.523956    0.379933    0.615191     0.006663
NI3995   NI        0.524510    0.411041    0.580535     0.004307
CU3996   CU        0.555708    0.379880    0.579710     0.006663
CU3997   CU        0.556166    0.409576    0.614457     0.006663
CU3998   CU        0.588321    0.378856    0.613290     0.006663
CU3999   CU        0.588689    0.411170    0.577829     0.006663
NI4000   NI        0.618526    0.378851    0.580358     0.004307
CU4001   CU        0.618101    0.413565    0.613304     0.006663
NI4002   NI        0.649031    0.380643    0.614788     0.004307
CU4003   CU        0.650144    0.412019    0.580387     0.006663
NI4004   NI        0.681864    0.379742    0.583010     0.004307
NI4005   NI        0.680108    0.412527    0.613326     0.004307
NI4006   NI        0.710800    0.383427    0.617123     0.004307
NI4007   NI        0.708877    0.411951    0.580956     0.004307
CU4008   CU        0.766372    0.374847    0.584831     0.006663
NI4009   NI        0.740284    0.414743    0.613954     0.004307
NI4010   NI        0.789981    0.372359    0.622424     0.004307
NI4011   NI        0.789749    0.410573    0.583349     0.004307
NI4012   NI        0.816299    0.375914    0.584389     0.004307
NI4013   NI        0.815715    0.410031    0.618762     0.004307
NI4014   NI        0.844017    0.409124    0.583714     0.004307
NI4015   NI        0.012909    0.479917    0.584017     0.004307
NI4016   NI        0.040855    0.447370    0.580320     0.004307
NI4017   NI        0.044938    0.475956    0.619790     0.004307
NI4018   NI        0.075477    0.441638    0.623512     0.004307
NI4019   NI        0.073982    0.478401    0.586673     0.004307
NI4020   NI        0.095084    0.443685    0.584025     0.004307
CU4021   CU        0.103897    0.478932    0.621309     0.006663
NI4022   NI        0.133424    0.444820    0.621614     0.004307
NI4023   NI        0.149360    0.474627    0.580068     0.004307
NI4024   NI        0.179956    0.443797    0.579712     0.004307
NI4025   NI        0.177974    0.474080    0.612429     0.004307
CU4026   CU        0.213178    0.443102    0.611701     0.006663
CU4027   CU        0.213183    0.474713    0.582407     0.006663
CU4028   CU        0.243781    0.443083    0.578962     0.006663
NI4029   NI        0.243087    0.477655    0.611930     0.004307
CU4030   CU        0.273133    0.446074    0.611973     0.006663
CU4031   CU        0.272372    0.477285    0.578787     0.006663
CU4032   CU        0.305772    0.443529    0.580047     0.006663
NI4033   NI        0.306537    0.476022    0.611954     0.004307
CU4034   CU        0.337298    0.445039    0.612627     0.006663
CU4035   CU        0.337722    0.475710    0.577357     0.006663
CU4036   CU        0.368857    0.444378    0.579404     0.006663
NI4037   NI        0.369987    0.476471    0.612496     0.004307
CU4038   CU        0.401853    0.445717    0.611791     0.006663
CU4039   CU        0.402355    0.477059    0.580462     0.006663
CU4040   CU        0.431940    0.441504    0.580232     0.006663
CU4041   CU        0.432088    0.477126    0.612243     0.006663
CU4042   CU        0.462291    0.445328    0.613114     0.006663
CU4043   CU        0.460171    0.476439    0.580431     0.006663
CU4044   CU        0.494152    0.442901    0.580165     0.006663
CU4045   CU        0.493041    0.476081    0.612623     0.006663
CU4046   CU        0.523268    0.442339    0.612750     0.006663
CU4047   CU        0.523947    0.473719    0.579395     0.006663
NI4048   NI        0.555419    0.443964    0.579914     0.004307
CU4049   CU        0.556142    0.473834    0.613563     0.006663
NI4050   NI        0.588077    0.443643    0.611508     0.004307
CU4051   CU        0.587313    0.474372    0.580288     0.006663
CU4052   CU        0.617958    0.443042    0.577286     0.006663
CU4053   CU        0.619243    0.474499    0.611408     0.006663
CU4054   CU        0.649822    0.444107    0.611348     0.006663
CU4055   CU        0.649602    0.473484    0.577850     0.006663
CU4056   CU        0.681101    0.443829    0.580625     0.006663
CU4057   CU        0.679564    0.475017    0.610632     0.006663
NI4058   NI        0.709641    0.443534    0.614405     0.004307
CU4059   CU        0.711096    0.476844    0.579394     0.006663
NI4060   NI        0.760937    0.441469    0.584742     0.004307
NI4061   NI        0.758318    0.475897    0.620356     0.004307
NI4062   NI        0.786857    0.443717    0.620531     0.004307
NI4063   NI        0.785834    0.476247    0.584191     0.004307
NI4064   NI        0.817935    0.442276    0.585319     0.004307
NI4065   NI        0.818655    0.469894    0.619036     0.004307
CU4066   CU        0.845837    0.475751    0.587238     0.006663
CU4067   CU        0.042040    0.509826    0.588448     0.006663
NI4068   NI        0.044774    0.539905    0.620813     0.004307
CU4069   CU        0.072820    0.508558    0.620974     0.006663
NI4070   NI        0.071234    0.543211    0.586166     0.004307
NI4071   NI        0.100473    0.511374    0.586291     0.004307
NI4072   NI        0.103961    0.542474    0.621113     0.004307
CU4073   CU        0.134971    0.512404    0.625430     0.006663
NI4074   NI        0.133463    0.543869    0.588359     0.004307
NI4075   NI        0.181143    0.505253    0.577677     0.004307
NI4076   NI        0.166198    0.542434    0.624002     0.004307
NI4077   NI        0.209543    0.505337    0.614454     0.004307
NI4078   NI        0.209914    0.537977    0.580211     0.004307
CU4079   CU        0.240919    0.507329    0.578686     0.006663
CU4080   CU        0.241124    0.535605    0.612693     0.006663
CU4081   CU        0.274849    0.505428    0.612546     0.006663
CU4082   CU        0.271336    0.537133    0.579746     0.006663
CU4083   CU        0.306301    0.507221    0.578824     0.006663
CU4084   CU        0.303085    0.536891    0.613779     0.006663
CU4085   CU        0.337413    0.506925    0.613542     0.006663
CU4086   CU        0.337363    0.537915    0.579795     0.006663
CU4087   CU        0.370562    0.505688    0.576857     0.006663
CU4088   CU        0.370187    0.538557    0.612312     0.006663
CU4089   CU        0.400441    0.506990    0.614493     0.006663
CU4090   CU        0.400111    0.537754    0.579317     0.006663
CU4091   CU        0.432344    0.509866    0.577745     0.006663
CU4092   CU        0.430563    0.538422    0.612385     0.006663
CU4093   CU        0.460746    0.507036    0.612926     0.006663
CU4094   CU        0.463590    0.537324    0.579864     0.006663
NI4095   NI        0.494713    0.507749    0.579569     0.004307
CU4096   CU        0.492856    0.537595    0.614782     0.006663
CU4097   CU        0.524650    0.507498    0.612075     0.006663
NI4098   NI        0.525276    0.538647    0.579776     0.004307
CU4099   CU        0.554979    0.505326    0.578711     0.006663
CU4100   CU        0.556010    0.537410    0.611931     0.006663
CU4101   CU        0.586819    0.506550    0.611490     0.006663
CU4102   CU        0.588761    0.535611    0.577925     0.006663
CU4103   CU        0.619780    0.506306    0.577688     0.006663
NI4104   NI        0.619846    0.533300    0.611032     0.004307
NI4105   NI        0.648235    0.504811    0.609970     0.004307
NI4106   NI        0.650668    0.536743    0.578867     0.004307
CU4107   CU        0.680863    0.506135    0.578124     0.006663
NI4108   NI        0.697107    0.544143    0.623614     0.004307
NI4109   NI        0.725031    0.512102    0.624393     0.004307
NI4110   NI        0.732203    0.543888    0.589466     0.004307
CU4111   CU        0.760738    0.511348    0.586841     0.006663
NI4112   NI        0.759435    0.540946    0.623436     0.004307
CU4113   CU        0.788623    0.506947    0.621536     0.006663
CU4114   CU        0.790272    0.541077    0.586671     0.006663
NI4115   NI        0.816063    0.509095    0.586872     0.004307
NI4116   NI        0.816354    0.539926    0.622493     0.004307
NI4117   NI        0.046867    0.577953    0.589180     0.004307
NI4118   NI        0.077507    0.576022    0.623122     0.004307
CU4119   CU        0.076852    0.608371    0.588044     0.006663
NI4120   NI        0.104830    0.575341    0.587227     0.004307
NI4121   NI        0.108187    0.607840    0.620803     0.004307
CU4122   CU        0.134532    0.574960    0.621208     0.006663
NI4123   NI        0.135204    0.608700    0.586532     0.004307
NI4124   NI        0.162521    0.573156    0.586496     0.004307
NI4125   NI        0.167203    0.608258    0.619394     0.004307
CU4126   CU        0.212530    0.570687    0.614331     0.006663
NI4127   NI        0.195535    0.607507    0.585506     0.004307
CU4128   CU        0.241858    0.567111    0.580706     0.006663
NI4129   NI        0.244207    0.599536    0.612364     0.004307
NI4130   NI        0.271944    0.567520    0.611924     0.004307
NI4131   NI        0.271175    0.599850    0.576960     0.004307
NI4132   NI        0.302088    0.569482    0.579530     0.004307
CU4133   CU        0.303699    0.600163    0.611391     0.006663
CU4134   CU        0.335530    0.566961    0.610343     0.006663
CU4135   CU        0.334818    0.599532    0.579765     0.006663
CU4136   CU        0.367476    0.571762    0.582567     0.006663
CU4137   CU        0.366040    0.600334    0.612083     0.006663
CU4138   CU        0.399076    0.568560    0.612169     0.006663
CU4139   CU        0.399970    0.600704    0.580931     0.006663
CU4140   CU        0.431651    0.569281    0.579173     0.006663
CU4141   CU        0.430201    0.598199    0.610780     0.006663
CU4142   CU        0.462360    0.567567    0.612264     0.006663
CU4143   CU        0.462718    0.600450    0.580823     0.006663
CU4144   CU        0.494568    0.569028    0.580892     0.006663
NI4145   NI        0.493888    0.599426    0.613301     0.004307
CU4146   CU        0.524912    0.566549    0.613665     0.006663
CU4147   CU        0.523043    0.598035    0.578893     0.006663
CU4148   CU        0.558098    0.566033    0.578347     0.006663
CU4149   CU        0.556921    0.598392    0.611459     0.006663
NI4150   NI        0.588281    0.565409    0.611463     0.004307
CU4151   CU        0.589607    0.601034    0.577473     0.006663
CU4152   CU        0.618893    0.565643    0.578569     0.006663
NI4153   NI        0.633034    0.607752    0.623284     0.004307
CU4154   CU        0.664592    0.577905    0.623538     0.006663
NI4155   NI        0.647144    0.595133    0.583141     0.004307
NI4156   NI        0.697925    0.576820    0.587916     0.004307
CU4157   CU        0.695341    0.608178    0.624302     0.006663
CU4158   CU        0.727868    0.574447    0.623619     0.006663
NI4159   NI        0.727864    0.608771    0.587124     0.004307
CU4160   CU        0.759234    0.575803    0.586884     0.006663
NI4161   NI        0.756448    0.607434    0.619994     0.004307
NI4162   NI        0.786799    0.576032    0.622788     0.004307
NI4163   NI        0.786489    0.606557    0.586574     0.004307
NI4164   NI        0.818610    0.576761    0.589377     0.004307
NI4165   NI        0.079783    0.641384    0.620983     0.004307
NI4166   NI        0.078138    0.671669    0.587290     0.004307
CU4167   CU        0.105958    0.640584    0.586267     0.006663
NI4168   NI        0.110156    0.671576    0.620941     0.004307
NI4169   NI        0.137789    0.640515    0.619021     0.004307
NI4170   NI        0.140860    0.670394    0.586929     0.004307
NI4171   NI        0.167997    0.639093    0.586807     0.004307
NI4172   NI        0.170762    0.669199    0.621942     0.004307
NI4173   NI        0.198109    0.640147    0.619721     0.004307
NI4174   NI        0.198957    0.672780    0.587484     0.004307
CU4175   CU        0.238799    0.630184    0.581148     0.006663
NI4176   NI        0.239079    0.661225    0.612848     0.004307
NI4177   NI        0.274375    0.631808    0.612819     0.004307
NI4178   NI        0.271238    0.660106    0.578878     0.004307
NI4179   NI        0.303760    0.630265    0.578175     0.004307
CU4180   CU        0.304220    0.662574    0.613371     0.006663
CU4181   CU        0.334606    0.630109    0.614076     0.006663
NI4182   NI        0.334525    0.660509    0.579738     0.004307
CU4183   CU        0.366211    0.629412    0.578846     0.006663
NI4184   NI        0.368276    0.660548    0.612281     0.004307
CU4185   CU        0.397939    0.629444    0.613272     0.006663
CU4186   CU        0.399094    0.659022    0.578153     0.006663
CU4187   CU        0.430898    0.630529    0.578367     0.006663
NI4188   NI        0.436987    0.669292    0.625372     0.004307
CU4189   CU        0.468622    0.639873    0.624128     0.006663
NI4190   NI        0.463123    0.660910    0.580349     0.004307
CU4191   CU        0.495050    0.630944    0.580818     0.006663
NI4192   NI        0.495354    0.674425    0.623092     0.004307
CU4193   CU        0.528874    0.629436    0.611792     0.006663
CU4194   CU        0.527360    0.662400    0.580926     0.006663
CU4195   CU        0.557806    0.632003    0.578502     0.006663
NI4196   NI        0.560573    0.659741    0.609692     0.004307
NI4197   NI        0.588853    0.628650    0.611344     0.004307
NI4198   NI        0.588545    0.660555    0.578286     0.004307
NI4199   NI        0.621058    0.630231    0.578737     0.004307
NI4200   NI        0.632450    0.673535    0.621103     0.004307
NI4201   NI        0.662735    0.642267    0.623101     0.004307
NI4202   NI        0.663498    0.672114    0.586631     0.004307
NI4203   NI        0.694127    0.642053    0.587075     0.004307
NI4204   NI        0.693306    0.671231    0.621697     0.004307
CU4205   CU        0.724629    0.641374    0.619585     0.006663
CU4206   CU        0.724306    0.673286    0.584849     0.006663
CU4207   CU        0.757198    0.640006    0.585052     0.006663
NI4208   NI        0.753173    0.672438    0.616546     0.004307
CU4209   CU        0.784460    0.643109    0.617048     0.006663
NI4210   NI        0.785450    0.672441    0.583412     0.004307
NI4211   NI        0.108293    0.701340    0.587465     0.004307
NI4212   NI        0.141237    0.702313    0.619778     0.004307
NI4213   NI        0.139819    0.733754    0.586046     0.004307
NI4214   NI        0.168406    0.701389    0.585760     0.004307
NI4215   NI        0.172229    0.732315    0.620777     0.004307
NI4216   NI        0.217360    0.695806    0.620228     0.004307
NI4217   NI        0.200270    0.735951    0.583223     0.004307
NI4218   NI        0.239023    0.691047    0.580629     0.004307
NI4219   NI        0.235348    0.735163    0.621409     0.004307
NI4220   NI        0.263394    0.702543    0.618148     0.004307
CU4221   CU        0.264180    0.739063    0.585766     0.006663
CU4222   CU        0.303038    0.691918    0.577668     0.006663
CU4223   CU        0.299359    0.740868    0.620984     0.006663
NI4224   NI        0.332022    0.712344    0.617584     0.004307
NI4225   NI        0.329976    0.740886    0.584125     0.004307
NI4226   NI        0.362789    0.712354    0.582280     0.004307
CU4227   CU        0.364439    0.740325    0.619180     0.006663
NI4228   NI        0.398648    0.713329    0.621300     0.004307
CU4229   CU        0.395465    0.740760    0.585063     0.006663
NI4230   NI        0.429469    0.712035    0.583693     0.004307
NI4231   NI        0.432167    0.739246    0.621840     0.004307
NI4232   NI        0.461082    0.704290    0.625778     0.004307
CU4233   CU        0.463971    0.743637    0.584922     0.006663
NI4234   NI        0.493571    0.692279    0.577422     0.004307
NI4235   NI        0.497950    0.737706    0.622159     0.004307
NI4236   NI        0.529122    0.705561    0.624738     0.004307
NI4237   NI        0.526827    0.739068    0.589013     0.004307
NI4238   NI        0.560612    0.691994    0.576965     0.004307
CU4239   CU        0.560542    0.736191    0.622785     0.006663
NI4240   NI        0.598237    0.704621    0.623645     0.004307
NI4241   NI        0.595626    0.738190    0.587463     0.004307
CU4242   CU        0.628154    0.707806    0.588754     0.006663
NI4243   NI        0.627095    0.737664    0.620692     0.004307
NI4244   NI        0.661466    0.703611    0.617947     0.004307
NI4245   NI        0.658187    0.738738    0.583148     0.004307
NI4246   NI        0.693315    0.702728    0.584455     0.004307
NI4247   NI        0.689080    0.735099    0.617628     0.004307
CU4248   CU        0.720980    0.703958    0.617053     0.006663
NI4249   NI        0.722074    0.733803    0.584967     0.004307
NI4250   NI        0.753737    0.704084    0.585546     0.004307
NI4251   NI        0.170760    0.766599    0.586636     0.004307
NI4252   NI        0.203518    0.766606    0.620637     0.004307
NI4253   NI        0.203231    0.796678    0.585614     0.004307
NI4254   NI        0.232243    0.768652    0.587165     0.004307
NI4255   NI        0.233191    0.797972    0.619028     0.004307
NI4256   NI        0.265461    0.768444    0.619486     0.004307
CU4257   CU        0.266292    0.799276    0.585043     0.006663
CU4258   CU        0.299373    0.770156    0.587210     0.006663
CU4259   CU        0.299806    0.801185    0.619937     0.006663
NI4260   NI        0.331613    0.768965    0.619968     0.004307
NI4261   NI        0.330762    0.799988    0.585320     0.004307
NI4262   NI        0.363725    0.770472    0.585548     0.004307
NI4263   NI        0.364156    0.798163    0.622299     0.004307
NI4264   NI        0.395416    0.768417    0.620304     0.004307
CU4265   CU        0.398864    0.798042    0.586330     0.006663
NI4266   NI        0.430870    0.770015    0.587178     0.004307
NI4267   NI        0.430438    0.796212    0.620399     0.004307
NI4268   NI        0.465721    0.767771    0.621580     0.004307
CU4269   CU        0.463169    0.799770    0.586949     0.006663
NI4270   NI        0.496604    0.769916    0.587963     0.004307
CU4271   CU        0.495431    0.799009    0.622004     0.006663
NI4272   NI        0.527460    0.768385    0.621806     0.004307
CU4273   CU        0.530520    0.798647    0.586741     0.006663
NI4274   NI        0.564217    0.769344    0.587915     0.004307
NI4275   NI        0.562966    0.798414    0.621174     0.004307
CU4276   CU        0.595539    0.769709    0.620017     0.006663
NI4277   NI        0.595450    0.797640    0.585090     0.004307
NI4278   NI        0.626795    0.767402    0.587524     0.004307
CU4279   CU        0.629836    0.796235    0.620926     0.006663
NI4280   NI        0.660186    0.768074    0.619309     0.004307
NI4281   NI        0.659525    0.798542    0.584736     0.004307
NI4282   NI        0.691506    0.765576    0.586034     0.004307
NI4283   NI        0.299487    0.827176    0.585455     0.004307
NI4284   NI        0.333786    0.828177    0.620948     0.004307
NI4285   NI        0.365988    0.828797    0.586433     0.004307
NI4286   NI        0.396991    0.826373    0.621235     0.004307
NI4287   NI        0.398533    0.858105    0.582325     0.004307
NI4288   NI        0.430788    0.828295    0.584944     0.004307
CU4289   CU        0.462535    0.827451    0.621277     0.006663
NI4290   NI        0.464402    0.856222    0.585359     0.004307
NI4291   NI        0.498769    0.828735    0.585159     0.004307
NI4292   NI        0.529493    0.827279    0.620997     0.004307
NI4293   NI        0.560414    0.828466    0.584275     0.004307
NI4294   NI        0.270044    0.089603    0.652204     0.004307
NI4295   NI        0.300419    0.092421    0.686299     0.004307
NI4296   NI        0.331016    0.087606    0.653517     0.004307
CU4297   CU        0.363708    0.059434    0.652605     0.006663
NI4298   NI        0.367994    0.088015    0.688817     0.004307
NI4299   NI        0.398610    0.088503    0.653953     0.004307
NI4300   NI        0.430018    0.060213    0.654247     0.004307
NI4301   NI        0.431627    0.091204    0.688713     0.004307
NI4302   NI        0.463531    0.088594    0.654082     0.004307
CU4303   CU        0.496438    0.060118    0.651111     0.006663
NI4304   NI        0.496406    0.089147    0.687522     0.004307
CU4305   CU        0.528655    0.089722    0.653601     0.006663
NI4306   NI        0.559766    0.086608    0.685734     0.004307
NI4307   NI        0.591285    0.091456    0.655199     0.004307
NI4308   NI        0.206002    0.151865    0.649726     0.004307
NI4309   NI        0.236879    0.121422    0.651290     0.004307
NI4310   NI        0.232481    0.146198    0.688052     0.004307
NI4311   NI        0.269893    0.120845    0.684061     0.004307
NI4312   NI        0.266492    0.160350    0.664047     0.004307
CU4313   CU        0.300728    0.121098    0.651768     0.006663
NI4314   NI        0.303384    0.149804    0.684016     0.004307
NI4315   NI        0.335033    0.117882    0.688119     0.004307
NI4316   NI        0.335252    0.146101    0.655922     0.004307
CU4317   CU        0.364489    0.117685    0.655597     0.006663
NI4318   NI        0.364390    0.148476    0.691989     0.004307
NI4319   NI        0.397963    0.118018    0.689029     0.004307
NI4320   NI        0.396137    0.147892    0.655877     0.004307
NI4321   NI        0.431720    0.119491    0.655141     0.004307
CU4322   CU        0.431445    0.150122    0.689816     0.006663
CU4323   CU        0.464724    0.119457    0.690043     0.006663
NI4324   NI        0.465452    0.147803    0.656559     0.004307
NI4325   NI        0.496315    0.118702    0.655560     0.004307
NI4326   NI        0.499186    0.148565    0.688201     0.004307
CU4327   CU        0.528047    0.118816    0.688417     0.006663
NI4328   NI        0.531131    0.149221    0.655388     0.004307
NI4329   NI        0.561679    0.119842    0.656054     0.004307
NI4330   NI        0.560479    0.150043    0.689257     0.004307
NI4331   NI        0.593378    0.118677    0.687682     0.004307
NI4332   NI        0.593042    0.149136    0.654473     0.004307
NI4333   NI        0.628476    0.114122    0.649897     0.004307
NI4334   NI        0.629915    0.146337    0.675173     0.004307
NI4335   NI        0.662326    0.153330    0.650951     0.004307
NI4336   NI        0.140703    0.219058    0.650654     0.004307
NI4337   NI        0.169875    0.184912    0.649181     0.004307
NI4338   NI        0.166239    0.219646    0.688615     0.004307
CU4339   CU        0.206276    0.199493    0.690858     0.006663
CU4340   CU        0.199444    0.214915    0.650841     0.006663
NI4341   NI        0.238055    0.191335    0.659179     0.004307
CU4342   CU        0.239961    0.226220    0.686667     0.006663
NI4343   NI        0.268368    0.196274    0.692234     0.004307
CU4344   CU        0.269752    0.220719    0.655052     0.006663
NI4345   NI        0.296368    0.188474    0.658576     0.004307
CU4346   CU        0.298912    0.223321    0.690019     0.006663
NI4347   NI        0.333139    0.181313    0.687091     0.004307
NI4348   NI        0.329326    0.215429    0.654887     0.004307
NI4349   NI        0.365875    0.177760    0.661302     0.004307
NI4350   NI        0.364612    0.212411    0.691018     0.004307
CU4351   CU        0.394728    0.178591    0.693640     0.006663
NI4352   NI        0.402290    0.228438    0.644579     0.004307
NI4353   NI        0.430446    0.196115    0.644942     0.004307
NI4354   NI        0.432569    0.225339    0.678801     0.004307
CU4355   CU        0.468063    0.179947    0.691399     0.006663
CU4356   CU        0.462131    0.225446    0.646377     0.006663
CU4357   CU        0.498695    0.178713    0.654901     0.006663
NI4358   NI        0.499837    0.210823    0.696070     0.004307
CU4359   CU        0.531212    0.181929    0.690662     0.006663
NI4360   NI        0.533223    0.214469    0.658900     0.004307
NI4361   NI        0.562779    0.180032    0.657852     0.004307
CU4362   CU        0.564982    0.213650    0.690116     0.006663
NI4363   NI        0.592840    0.180065    0.689451     0.004307
NI4364   NI        0.595417    0.211796    0.657913     0.004307
CU4365   CU        0.629044    0.183430    0.655354     0.006663
CU4366   CU        0.629735    0.212741    0.687340     0.006663
NI4367   NI        0.662990    0.185684    0.684546     0.004307
NI4368   NI        0.661355    0.214971    0.654687     0.004307
CU4369   CU        0.690836    0.185663    0.650032     0.006663
NI4370   NI        0.693960    0.215611    0.686014     0.004307
NI4371   NI        0.722125    0.219372    0.651924     0.004307
CU4372   CU        0.078011    0.279792    0.652024     0.006663
CU4373   CU        0.109226    0.250023    0.655467     0.006663
NI4374   NI        0.107456    0.281572    0.688656     0.004307
NI4375   NI        0.139327    0.250159    0.687430     0.004307
NI4376   NI        0.138003    0.280497    0.656609     0.004307
NI4377   NI        0.170457    0.247955    0.653513     0.004307
NI4378   NI        0.168661    0.280935    0.689157     0.004307
NI4379   NI        0.200677    0.247467    0.687770     0.004307
NI4380   NI        0.198828    0.279104    0.657878     0.004307
NI4381   NI        0.238967    0.252333    0.647708     0.004307
NI4382   NI        0.238249    0.287336    0.678120     0.004307
NI4383   NI        0.268256    0.255464    0.683177     0.004307
CU4384   CU        0.272074    0.284241    0.644885     0.006663
NI4385   NI        0.298300    0.251058    0.651158     0.004307
NI4386   NI        0.300534    0.287181    0.681546     0.004307
NI4387   NI        0.330180    0.251090    0.684731     0.004307
NI4388   NI        0.338903    0.285884    0.644571     0.004307
NI4389   NI        0.372110    0.257784    0.642558     0.004307
NI4390   NI        0.370608    0.284840    0.678995     0.004307
CU4391   CU        0.401036    0.256472    0.677848     0.006663
NI4392   NI        0.402205    0.287958    0.644815     0.004307
CU4393   CU        0.432221    0.257748    0.646973     0.006663
NI4394   NI        0.432573    0.286324    0.679642     0.004307
NI4395   NI        0.463852    0.258564    0.678251     0.004307
CU4396   CU        0.462542    0.287353    0.645134     0.006663
NI4397   NI        0.493231    0.258511    0.644820     0.004307
NI4398   NI        0.493833    0.288421    0.680983     0.004307
CU4399   CU        0.530580    0.242505    0.695017     0.006663
NI4400   NI        0.524062    0.287784    0.644936     0.004307
CU4401   CU        0.565140    0.243953    0.656453     0.006663
NI4402   NI        0.560671    0.286451    0.668946     0.004307
NI4403   NI        0.598971    0.244421    0.689533     0.004307
NI4404   NI        0.599014    0.276179    0.655932     0.004307
NI4405   NI        0.629345    0.245661    0.656973     0.004307
NI4406   NI        0.628003    0.276184    0.689836     0.004307
NI4407   NI        0.661801    0.246808    0.688136     0.004307
NI4408   NI        0.661846    0.277749    0.654895     0.004307
NI4409   NI        0.690913    0.247286    0.654020     0.004307
NI4410   NI        0.689910    0.280744    0.687693     0.004307
NI4411   NI        0.721056    0.247959    0.687652     0.004307
NI4412   NI        0.724049    0.279010    0.654680     0.004307
NI4413   NI        0.752709    0.248361    0.654569     0.004307
NI4414   NI        0.755333    0.281230    0.688073     0.004307
NI4415   NI        0.785301    0.276628    0.654988     0.004307
NI4416   NI        0.077629    0.311247    0.689312     0.004307
NI4417   NI        0.077679    0.343747    0.655541     0.004307
NI4418   NI        0.109141    0.311887    0.656961     0.004307
NI4419   NI        0.107374    0.347819    0.691441     0.004307
NI4420   NI        0.138018    0.314352    0.691309     0.004307
NI4421   NI        0.137391    0.344635    0.657650     0.004307
CU4422   CU        0.167346    0.310538    0.657354     0.006663
CU4423   CU        0.169304    0.343983    0.689741     0.006663
NI4424   NI        0.200403    0.309360    0.692266     0.004307
NI4425   NI        0.211188    0.353639    0.646671     0.004307
NI4426   NI        0.243475    0.315795    0.646505     0.004307
CU4427   CU        0.243610    0.355318    0.679682     0.006663
NI4428   NI        0.271959    0.318998    0.682713     0.004307
NI4429   NI        0.274425    0.350873    0.645848     0.004307
CU4430   CU        0.306163    0.316977    0.645989     0.006663
CU4431   CU        0.307802    0.353832    0.676540     0.006663
NI4432   NI        0.340374    0.319174    0.674712     0.004307
CU4433   CU        0.338077    0.351450    0.643573     0.006663
CU4434   CU        0.370300    0.318079    0.642939     0.006663
CU4435   CU        0.371894    0.348633    0.675992     0.006663
NI4436   NI        0.403313    0.318491    0.677524     0.004307
CU4437   CU        0.399947    0.350785    0.643891     0.006663
CU4438   CU        0.433276    0.319024    0.645621     0.006663
CU4439   CU        0.429885    0.350045    0.677397     0.006663
NI4440   NI        0.463061    0.317437    0.679777     0.004307
CU4441   CU        0.463473    0.349061    0.647110     0.006663
CU4442   CU        0.493723    0.319678    0.645815     0.006663
CU4443   CU        0.496808    0.349705    0.680308     0.006663
NI4444   NI        0.527077    0.317197    0.678699     0.004307
NI4445   NI        0.526468    0.349854    0.647816     0.004307
NI4446   NI        0.556966    0.319914    0.645909     0.004307
NI4447   NI        0.556673    0.350084    0.680593     0.004307
NI4448   NI        0.587900    0.320240    0.682887     0.004307
NI4449   NI        0.587530    0.349839    0.646204     0.004307
NI4450   NI        0.626254    0.307153    0.657268     0.004307
NI4451   NI        0.618804    0.350014    0.677973     0.004307
CU4452   CU        0.658638    0.308459    0.693288     0.006663
NI4453   NI        0.652138    0.350519    0.648316     0.004307
CU4454   CU        0.694086    0.312495    0.658943     0.006663
NI4455   NI        0.679960    0.350304    0.684953     0.004307
NI4456   NI        0.726893    0.310476    0.690709     0.004307
NI4457   NI        0.710554    0.353193    0.649648     0.004307
NI4458   NI        0.759647    0.310885    0.658658     0.004307
NI4459   NI        0.758196    0.340724    0.692624     0.004307
CU4460   CU        0.788152    0.311267    0.690925     0.006663
NI4461   NI        0.789310    0.340360    0.657833     0.004307
NI4462   NI        0.018660    0.409280    0.660702     0.004307
NI4463   NI        0.075008    0.378277    0.688953     0.004307
NI4464   NI        0.077955    0.410321    0.658202     0.004307
CU4465   CU        0.105209    0.378053    0.657336     0.006663
NI4466   NI        0.106539    0.408480    0.690503     0.004307
CU4467   CU        0.137217    0.376722    0.692238     0.006663
CU4468   CU        0.135733    0.406935    0.657042     0.006663
NI4469   NI        0.165868    0.376614    0.660179     0.004307
NI4470   NI        0.168928    0.407453    0.692003     0.004307
NI4471   NI        0.211385    0.383994    0.678432     0.004307
NI4472   NI        0.211760    0.411400    0.643909     0.004307
NI4473   NI        0.243605    0.381851    0.645931     0.004307
NI4474   NI        0.243680    0.415492    0.676451     0.004307
CU4475   CU        0.277259    0.385249    0.677113     0.006663
NI4476   NI        0.275131    0.414592    0.645370     0.004307
NI4477   NI        0.308235    0.381955    0.646428     0.004307
NI4478   NI        0.305801    0.414409    0.675812     0.004307
CU4479   CU        0.342530    0.383039    0.675402     0.006663
CU4480   CU        0.337876    0.415010    0.644913     0.006663
CU4481   CU        0.370195    0.383535    0.644890     0.006663
NI4482   NI        0.371226    0.414144    0.678298     0.004307
NI4483   NI        0.400723    0.381960    0.677433     0.004307
CU4484   CU        0.402212    0.412996    0.645047     0.006663
CU4485   CU        0.432951    0.382567    0.644235     0.006663
NI4486   NI        0.433142    0.412386    0.677491     0.004307
NI4487   NI        0.462715    0.382704    0.678400     0.004307
CU4488   CU        0.463146    0.415302    0.646121     0.006663
CU4489   CU        0.494991    0.381171    0.648506     0.006663
NI4490   NI        0.496158    0.413124    0.680988     0.004307
NI4491   NI        0.524992    0.380571    0.681424     0.004307
CU4492   CU        0.525095    0.411909    0.647343     0.006663
NI4493   NI        0.556445    0.381376    0.650691     0.004307
NI4494   NI        0.558171    0.412135    0.682297     0.004307
CU4495   CU        0.589075    0.380195    0.679747     0.006663
NI4496   NI        0.590195    0.412852    0.646520     0.004307
NI4497   NI        0.618484    0.380698    0.646610     0.004307
CU4498   CU        0.618872    0.410104    0.681466     0.006663
NI4499   NI        0.648506    0.382007    0.678309     0.004307
CU4500   CU        0.649892    0.412500    0.647610     0.006663
CU4501   CU        0.677370    0.382525    0.647094     0.006663
NI4502   NI        0.678139    0.414004    0.683581     0.004307
CU4503   CU        0.707221    0.384215    0.681832     0.006663
NI4504   NI        0.706617    0.412834    0.647952     0.004307
NI4505   NI        0.738267    0.386972    0.652064     0.004307
NI4506   NI        0.756917    0.409185    0.689084     0.004307
NI4507   NI        0.785293    0.374819    0.687485     0.004307
NI4508   NI        0.788436    0.408269    0.657163     0.004307
NI4509   NI        0.816059    0.375704    0.657977     0.004307
CU4510   CU        0.047677    0.442180    0.656200     0.006663
NI4511   NI        0.077890    0.444000    0.692154     0.004307
CU4512   CU        0.076083    0.476989    0.658386     0.006663
NI4513   NI        0.106731    0.442896    0.654735     0.004307
CU4514   CU        0.106066    0.477066    0.690354     0.006663
NI4515   NI        0.136810    0.443980    0.688515     0.004307
NI4516   NI        0.133006    0.476615    0.654365     0.004307
NI4517   NI        0.179162    0.443663    0.643083     0.004307
NI4518   NI        0.165123    0.480027    0.691118     0.004307
NI4519   NI        0.210916    0.441882    0.675319     0.004307
CU4520   CU        0.211240    0.472816    0.644951     0.006663
CU4521   CU        0.242837    0.445753    0.645840     0.006663
NI4522   NI        0.239764    0.474351    0.678823     0.004307
CU4523   CU        0.274195    0.444150    0.676743     0.006663
NI4524   NI        0.276040    0.475273    0.644357     0.004307
NI4525   NI        0.305526    0.446283    0.643949     0.004307
NI4526   NI        0.306512    0.474860    0.677994     0.004307
NI4527   NI        0.339576    0.444778    0.678819     0.004307
CU4528   CU        0.335635    0.475971    0.645402     0.006663
CU4529   CU        0.371843    0.444640    0.644464     0.006663
NI4530   NI        0.369621    0.474658    0.679580     0.004307
NI4531   NI        0.403100    0.444003    0.677064     0.004307
CU4532   CU        0.400796    0.475698    0.644822     0.006663
CU4533   CU        0.431765    0.445574    0.644700     0.006663
CU4534   CU        0.430907    0.473968    0.681147     0.006663
CU4535   CU        0.462084    0.444207    0.678364     0.006663
CU4536   CU        0.461773    0.477869    0.647580     0.006663
CU4537   CU        0.491640    0.446047    0.647123     0.006663
NI4538   NI        0.492347    0.476343    0.679890     0.004307
CU4539   CU        0.523032    0.445368    0.681768     0.006663
CU4540   CU        0.522688    0.473544    0.645733     0.006663
CU4541   CU        0.554007    0.444059    0.646627     0.006663
NI4542   NI        0.555542    0.473837    0.679709     0.004307
NI4543   NI        0.588213    0.442675    0.679760     0.004307
CU4544   CU        0.588653    0.472590    0.646992     0.006663
CU4545   CU        0.620150    0.442925    0.645884     0.006663
NI4546   NI        0.619311    0.474709    0.677714     0.004307
NI4547   NI        0.647814    0.442811    0.680990     0.004307
NI4548   NI        0.647890    0.474038    0.645926     0.004307
NI4549   NI        0.678325    0.442466    0.645454     0.004307
NI4550   NI        0.693891    0.481591    0.692002     0.004307
NI4551   NI        0.706217    0.443227    0.679561     0.004307
NI4552   NI        0.714425    0.474465    0.646329     0.004307
NI4553   NI        0.758808    0.439623    0.653443     0.004307
CU4554   CU        0.757259    0.477824    0.692363     0.006663
NI4555   NI        0.784478    0.443966    0.689283     0.004307
CU4556   CU        0.786881    0.476041    0.655919     0.006663
NI4557   NI        0.814977    0.440852    0.654255     0.004307
NI4558   NI        0.046576    0.509894    0.656221     0.004307
NI4559   NI        0.077841    0.512020    0.689033     0.004307
NI4560   NI        0.076757    0.542944    0.655857     0.004307
NI4561   NI        0.105571    0.511556    0.654424     0.004307
NI4562   NI        0.108068    0.541743    0.689228     0.004307
CU4563   CU        0.136759    0.509209    0.689199     0.006663
NI4564   NI        0.138087    0.542520    0.656675     0.004307
NI4565   NI        0.167242    0.511673    0.658170     0.004307
NI4566   NI        0.167617    0.541795    0.691654     0.004307
NI4567   NI        0.210415    0.505611    0.678708     0.004307
NI4568   NI        0.209336    0.536061    0.647195     0.004307
CU4569   CU        0.241963    0.504507    0.648381     0.006663
NI4570   NI        0.244289    0.533712    0.681419     0.004307
CU4571   CU        0.274556    0.504971    0.678670     0.006663
CU4572   CU        0.273435    0.535679    0.646416     0.006663
CU4573   CU        0.304608    0.506748    0.646722     0.006663
NI4574   NI        0.305519    0.537039    0.679348     0.004307
NI4575   NI        0.336616    0.504145    0.679478     0.004307
CU4576   CU        0.336022    0.537691    0.644627     0.006663
CU4577   CU        0.369834    0.506085    0.645997     0.006663
NI4578   NI        0.367904    0.535584    0.678318     0.004307
NI4579   NI        0.401113    0.504744    0.679518     0.004307
CU4580   CU        0.398912    0.538815    0.645755     0.006663
CU4581   CU        0.431332    0.507735    0.646580     0.006663
CU4582   CU        0.429860    0.538552    0.680523     0.006663
NI4583   NI        0.459520    0.506365    0.679908     0.004307
CU4584   CU        0.461573    0.538014    0.646724     0.006663
CU4585   CU        0.491312    0.507550    0.647422     0.006663
CU4586   CU        0.495423    0.540115    0.679740     0.006663
NI4587   NI        0.531760    0.512194    0.692373     0.004307
CU4588   CU        0.527430    0.536221    0.644203     0.006663
NI4589   NI        0.557004    0.505271    0.645104     0.004307
CU4590   CU        0.558376    0.538325    0.676137     0.006663
NI4591   NI        0.587254    0.504262    0.677303     0.004307
NI4592   NI        0.590134    0.537179    0.644646     0.004307
NI4593   NI        0.618635    0.505036    0.646510     0.004307
NI4594   NI        0.627940    0.541616    0.678222     0.004307
NI4595   NI        0.665683    0.512862    0.689900     0.004307
NI4596   NI        0.666515    0.543673    0.656044     0.004307
NI4597   NI        0.695080    0.511654    0.659125     0.004307
CU4598   CU        0.696566    0.542634    0.692287     0.006663
NI4599   NI        0.726560    0.510869    0.692010     0.004307
NI4600   NI        0.727072    0.543912    0.655965     0.004307
CU4601   CU        0.755946    0.508943    0.657793     0.006663
NI4602   NI        0.754989    0.542699    0.690529     0.004307
NI4603   NI        0.784008    0.508057    0.691492     0.004307
NI4604   NI        0.788991    0.542079    0.655964     0.004307
NI4605   NI        0.813313    0.508717    0.659168     0.004307
NI4606   NI        0.080255    0.575535    0.689970     0.004307
NI4607   NI        0.078869    0.606658    0.656872     0.004307
NI4608   NI        0.108205    0.574723    0.654513     0.004307
NI4609   NI        0.109654    0.606858    0.689958     0.004307
NI4610   NI        0.138303    0.573924    0.690608     0.004307
NI4611   NI        0.138519    0.607309    0.652601     0.004307
NI4612   NI        0.166715    0.575990    0.653256     0.004307
CU4613   CU        0.168878    0.609159    0.689554     0.006663
NI4614   NI        0.199771    0.574803    0.692392     0.004307
NI4615   NI        0.198763    0.607347    0.658238     0.004307
NI4616   NI        0.243495    0.565750    0.646147     0.004307
CU4617   CU        0.240742    0.596475    0.676383     0.006663
CU4618   CU        0.273578    0.567106    0.680107     0.006663
NI4619   NI        0.273625    0.598041    0.645832     0.004307
CU4620   CU        0.305238    0.569670    0.643507     0.006663
NI4621   NI        0.303960    0.599343    0.678926     0.004307
NI4622   NI        0.336547    0.566946    0.679868     0.004307
NI4623   NI        0.336301    0.600611    0.645027     0.004307
CU4624   CU        0.366267    0.568362    0.646624     0.006663
NI4625   NI        0.368083    0.599667    0.677369     0.004307
CU4626   CU        0.396953    0.568088    0.679523     0.006663
CU4627   CU        0.398756    0.598814    0.645544     0.006663
NI4628   NI        0.428347    0.568964    0.646291     0.004307
NI4629   NI        0.438142    0.607017    0.692646     0.004307
NI4630   NI        0.470080    0.578882    0.690530     0.004307
NI4631   NI        0.468416    0.609671    0.657793     0.004307
NI4632   NI        0.491956    0.571231    0.647037     0.004307
NI4633   NI        0.496406    0.612129    0.694153     0.004307
NI4634   NI        0.527590    0.567862    0.674459     0.004307
CU4635   CU        0.528205    0.598193    0.643775     0.006663
CU4636   CU        0.556791    0.567347    0.644213     0.006663
CU4637   CU        0.559232    0.599476    0.675707     0.006663
NI4638   NI        0.590813    0.568895    0.676060     0.004307
CU4639   CU        0.587857    0.596614    0.642052     0.006663
NI4640   NI        0.628853    0.579725    0.659303     0.004307
NI4641   NI        0.632295    0.611129    0.688924     0.004307
NI4642   NI        0.661561    0.575209    0.688621     0.004307
NI4643   NI        0.663241    0.609780    0.656152     0.004307
CU4644   CU        0.694513    0.575670    0.655891     0.006663
CU4645   CU        0.692906    0.607047    0.688891     0.006663
NI4646   NI        0.724274    0.577153    0.686793     0.004307
NI4647   NI        0.725624    0.608643    0.655442     0.004307
NI4648   NI        0.756510    0.573808    0.655619     0.004307
NI4649   NI        0.754232    0.605352    0.687400     0.004307
NI4650   NI        0.784039    0.577308    0.687927     0.004307
CU4651   CU        0.785479    0.609244    0.653034     0.006663
NI4652   NI        0.108946    0.637725    0.654496     0.004307
NI4653   NI        0.139195    0.638564    0.688787     0.004307
NI4654   NI        0.139341    0.670063    0.653904     0.004307
NI4655   NI        0.170387    0.638394    0.657143     0.004307
NI4656   NI        0.172553    0.669254    0.689478     0.004307
NI4657   NI        0.202349    0.638955    0.689452     0.004307
NI4658   NI        0.200913    0.671380    0.656692     0.004307
NI4659   NI        0.242644    0.629334    0.644813     0.004307
NI4660   NI        0.232732    0.670061    0.691284     0.004307
CU4661   CU        0.270854    0.628728    0.679981     0.006663
NI4662   NI        0.273415    0.660361    0.645907     0.004307
NI4663   NI        0.303102    0.630170    0.646498     0.004307
NI4664   NI        0.303341    0.659899    0.677594     0.004307
CU4665   CU        0.335378    0.630939    0.677958     0.006663
CU4666   CU        0.332190    0.662113    0.646028     0.006663
NI4667   NI        0.366913    0.632871    0.647183     0.004307
NI4668   NI        0.364411    0.676272    0.694195     0.004307
NI4669   NI        0.398350    0.628697    0.678868     0.004307
NI4670   NI        0.399971    0.659556    0.645014     0.004307
CU4671   CU        0.439030    0.639185    0.657905     0.006663
NI4672   NI        0.434004    0.675215    0.693349     0.004307
CU4673   CU        0.467620    0.642864    0.690805     0.006663
NI4674   NI        0.466733    0.671568    0.657312     0.004307
NI4675   NI        0.499774    0.640718    0.655947     0.004307
NI4676   NI        0.497226    0.675409    0.692860     0.004307
NI4677   NI        0.527116    0.643945    0.695621     0.004307
NI4678   NI        0.529170    0.675000    0.659976     0.004307
NI4679   NI        0.558189    0.630313    0.644627     0.004307
NI4680   NI        0.562640    0.672505    0.689193     0.004307
NI4681   NI        0.597567    0.643957    0.691559     0.004307
NI4682   NI        0.596886    0.671450    0.656250     0.004307
NI4683   NI        0.632656    0.643251    0.657066     0.004307
NI4684   NI        0.628542    0.671198    0.689654     0.004307
NI4685   NI        0.662966    0.640910    0.689507     0.004307
CU4686   CU        0.661880    0.672684    0.656753     0.006663
NI4687   NI        0.693545    0.640207    0.656029     0.004307
NI4688   NI        0.690516    0.674056    0.689426     0.004307
NI4689   NI        0.723479    0.638365    0.689425     0.004307
NI4690   NI        0.723273    0.670978    0.653982     0.004307
NI4691   NI        0.754458    0.641395    0.653373     0.004307
NI4692   NI        0.169575    0.702119    0.657523     0.004307
NI4693   NI        0.206176    0.700717    0.687246     0.004307
NI4694   NI        0.203994    0.732934    0.650941     0.004307
NI4695   NI        0.236528    0.705946    0.656828     0.004307
NI4696   NI        0.234164    0.734764    0.688699     0.004307
NI4697   NI        0.269719    0.689849    0.679994     0.004307
CU4698   CU        0.265660    0.738191    0.652599     0.006663
NI4699   NI        0.301067    0.692967    0.646946     0.004307
NI4700   NI        0.303758    0.736830    0.688464     0.004307
NI4701   NI        0.326533    0.700574    0.684631     0.004307
CU4702   CU        0.332681    0.738456    0.652568     0.006663
NI4703   NI        0.365492    0.710600    0.656467     0.004307
NI4704   NI        0.368651    0.738271    0.691604     0.004307
NI4705   NI        0.398537    0.703801    0.693207     0.004307
CU4706   CU        0.398183    0.739095    0.656849     0.006663
CU4707   CU        0.433102    0.703426    0.660058     0.006663
CU4708   CU        0.432567    0.738312    0.691724     0.006663
NI4709   NI        0.465306    0.706588    0.691743     0.004307
NI4710   NI        0.464182    0.735605    0.657709     0.004307
NI4711   NI        0.497632    0.704495    0.658101     0.004307
CU4712   CU        0.495196    0.737290    0.691087     0.006663
NI4713   NI        0.530773    0.705232    0.692235     0.004307
NI4714   NI        0.530026    0.737255    0.656220     0.004307
NI4715   NI        0.562322    0.705821    0.655458     0.004307
NI4716   NI        0.562442    0.736866    0.688601     0.004307
NI4717   NI        0.595243    0.702379    0.687356     0.004307
NI4718   NI        0.593170    0.735583    0.654217     0.004307
NI4719   NI        0.627297    0.703123    0.656062     0.004307
NI4720   NI        0.626118    0.735599    0.688356     0.004307
NI4721   NI        0.656499    0.703528    0.688037     0.004307
NI4722   NI        0.657932    0.732271    0.655020     0.004307
NI4723   NI        0.691470    0.701986    0.652482     0.004307
NI4724   NI        0.234045    0.766551    0.653057     0.004307
NI4725   NI        0.270445    0.764696    0.690424     0.004307
NI4726   NI        0.267395    0.795796    0.658909     0.004307
NI4727   NI        0.298979    0.767140    0.653434     0.004307
NI4728   NI        0.300675    0.794751    0.689289     0.004307
CU4729   CU        0.333950    0.767036    0.689911     0.006663
NI4730   NI        0.335719    0.798352    0.656471     0.004307
NI4731   NI        0.365713    0.767103    0.653853     0.004307
NI4732   NI        0.365317    0.796633    0.690080     0.004307
NI4733   NI        0.399090    0.767936    0.689660     0.004307
NI4734   NI        0.397884    0.797610    0.656382     0.004307
CU4735   CU        0.430890    0.766720    0.655873     0.006663
NI4736   NI        0.431075    0.796637    0.690912     0.004307
CU4737   CU        0.464514    0.767880    0.690733     0.006663
NI4738   NI        0.461447    0.797537    0.653390     0.004307
NI4739   NI        0.497362    0.766672    0.655858     0.004307
NI4740   NI        0.494037    0.797644    0.687013     0.004307
NI4741   NI        0.529272    0.766620    0.689952     0.004307
NI4742   NI        0.528615    0.797698    0.656622     0.004307
NI4743   NI        0.562380    0.768218    0.653816     0.004307
CU4744   CU        0.563569    0.795037    0.691667     0.006663
NI4745   NI        0.596152    0.766285    0.690582     0.004307
NI4746   NI        0.595373    0.795810    0.654464     0.004307
NI4747   NI        0.626870    0.766676    0.655048     0.004307
NI4748   NI        0.366145    0.827671    0.655508     0.004307
NI4749   NI        0.428660    0.826765    0.652600     0.004307
NI4750   NI        0.495465    0.828093    0.654376     0.004307
NI4751   NI        0.398169    0.090819    0.722557     0.004307
NI4752   NI        0.465900    0.089012    0.722223     0.004307
NI4753   NI        0.270316    0.153101    0.711364     0.004307
NI4754   NI        0.302399    0.120120    0.717559     0.004307
NI4755   NI        0.297529    0.154274    0.745949     0.004307
NI4756   NI        0.332359    0.125184    0.754022     0.004307
NI4757   NI        0.331723    0.153312    0.721676     0.004307
NI4758   NI        0.365223    0.119479    0.723360     0.004307
CU4759   CU        0.365523    0.152347    0.756001     0.006663
CU4760   CU        0.395122    0.123557    0.758114     0.006663
NI4761   NI        0.399485    0.148661    0.723299     0.004307
CU4762   CU        0.431586    0.118648    0.725995     0.006663
CU4763   CU        0.433920    0.150124    0.757552     0.006663
NI4764   NI        0.464555    0.122265    0.756023     0.004307
CU4765   CU        0.462215    0.150693    0.724329     0.006663
NI4766   NI        0.497065    0.120308    0.724757     0.004307
NI4767   NI        0.496011    0.151077    0.759400     0.004307
NI4768   NI        0.530116    0.125186    0.760044     0.004307
NI4769   NI        0.530947    0.150940    0.724204     0.004307
NI4770   NI        0.559925    0.153268    0.757616     0.004307
NI4771   NI        0.556359    0.147229    0.828582     0.004307
NI4772   NI        0.594434    0.150155    0.720879     0.004307
NI4773   NI        0.195439    0.219727    0.725728     0.004307
NI4774   NI        0.234752    0.204098    0.723041     0.004307
NI4775   NI        0.222904    0.219035    0.762476     0.004307
NI4776   NI        0.291162    0.194038    0.767588     0.004307
NI4777   NI        0.269502    0.228884    0.722778     0.004307
CU4778   CU        0.304511    0.194663    0.725554     0.006663
CU4779   CU        0.302899    0.229926    0.752729     0.006663
NI4780   NI        0.333172    0.201224    0.758359     0.004307
CU4781   CU        0.334502    0.223679    0.720503     0.006663
CU4782   CU        0.363092    0.183984    0.725350     0.006663
NI4783   NI        0.364924    0.227297    0.751250     0.004307
NI4784   NI        0.400771    0.181243    0.759043     0.004307
NI4785   NI        0.397256    0.210210    0.727273     0.004307
CU4786   CU        0.431935    0.182242    0.723975     0.006663
NI4787   NI        0.431826    0.211636    0.758072     0.004307
NI4788   NI        0.463893    0.181308    0.759296     0.004307
NI4789   NI        0.463983    0.210583    0.728319     0.004307
NI4790   NI        0.495581    0.180702    0.726118     0.004307
NI4791   NI        0.497829    0.214272    0.759819     0.004307
NI4792   NI        0.529272    0.180838    0.758943     0.004307
NI4793   NI        0.532573    0.211683    0.725532     0.004307
NI4794   NI        0.562195    0.182441    0.722706     0.004307
NI4795   NI        0.562438    0.215464    0.758383     0.004307
NI4796   NI        0.591425    0.184320    0.757733     0.004307
CU4797   CU        0.593581    0.215606    0.727017     0.006663
NI4798   NI        0.628965    0.172414    0.707873     0.004307
NI4799   NI        0.628050    0.216823    0.759879     0.004307
CU4800   CU        0.657553    0.218759    0.725502     0.006663
NI4801   NI        0.138803    0.285739    0.721388     0.004307
NI4802   NI        0.170521    0.251923    0.722999     0.004307
CU4803   CU        0.170054    0.282184    0.756644     0.006663
NI4804   NI        0.200675    0.252815    0.759006     0.004307
NI4805   NI        0.199319    0.280394    0.724304     0.004307
NI4806   NI        0.229035    0.247579    0.725246     0.004307
CU4807   CU        0.233500    0.281586    0.758929     0.006663
NI4808   NI        0.275999    0.263571    0.752968     0.004307
NI4809   NI        0.269144    0.287896    0.717807     0.004307
CU4810   CU        0.301855    0.259013    0.716419     0.006663
NI4811   NI        0.303752    0.295149    0.743331     0.004307
NI4812   NI        0.335961    0.264100    0.744953     0.004307
NI4813   NI        0.337738    0.289010    0.709478     0.004307
NI4814   NI        0.364106    0.255320    0.713677     0.004307
NI4815   NI        0.370208    0.289051    0.744909     0.004307
NI4816   NI        0.396634    0.257625    0.743399     0.004307
NI4817   NI        0.401685    0.287942    0.712384     0.004307
CU4818   CU        0.430698    0.258576    0.711331     0.006663
NI4819   NI        0.429547    0.287958    0.744894     0.004307
NI4820   NI        0.465471    0.243323    0.761611     0.004307
NI4821   NI        0.461819    0.287372    0.713708     0.004307
NI4822   NI        0.502087    0.243656    0.727515     0.004307
NI4823   NI        0.498605    0.275378    0.760664     0.004307
NI4824   NI        0.531764    0.244207    0.759746     0.004307
CU4825   CU        0.531352    0.276808    0.728878     0.006663
NI4826   NI        0.562200    0.243375    0.724849     0.004307
NI4827   NI        0.564602    0.277281    0.759436     0.004307
CU4828   CU        0.595690    0.245941    0.758343     0.006663
NI4829   NI        0.597267    0.277069    0.726362     0.004307
NI4830   NI        0.625444    0.245787    0.724451     0.004307
NI4831   NI        0.625219    0.281278    0.760221     0.004307
NI4832   NI        0.657752    0.251750    0.756615     0.004307
NI4833   NI        0.657635    0.278272    0.723051     0.004307
NI4834   NI        0.687714    0.250199    0.721073     0.004307
NI4835   NI        0.690046    0.279851    0.758137     0.004307
NI4836   NI        0.719129    0.280614    0.721334     0.004307
NI4837   NI        0.106462    0.317153    0.723924     0.004307
NI4838   NI        0.109104    0.347234    0.756371     0.004307
NI4839   NI        0.141908    0.315925    0.754095     0.004307
NI4840   NI        0.138596    0.346362    0.723391     0.004307
CU4841   CU        0.170017    0.312875    0.722482     0.006663
CU4842   CU        0.170842    0.346381    0.760758     0.006663
NI4843   NI        0.200743    0.311988    0.758127     0.004307
NI4844   NI        0.203766    0.343084    0.726042     0.004307
NI4845   NI        0.233190    0.309970    0.727868     0.004307
NI4846   NI        0.230279    0.342854    0.761020     0.004307
CU4847   CU        0.264520    0.312091    0.757623     0.006663
NI4848   NI        0.277041    0.356002    0.709956     0.004307
CU4849   CU        0.312382    0.322575    0.706462     0.006663
NI4850   NI        0.312250    0.354193    0.737699     0.004307
NI4851   NI        0.342307    0.321882    0.738568     0.004307
NI4852   NI        0.342801    0.350494    0.705862     0.004307
CU4853   CU        0.372081    0.318644    0.707213     0.006663
NI4854   NI        0.372990    0.352036    0.740005     0.004307
NI4855   NI        0.402872    0.320771    0.743053     0.004307
NI4856   NI        0.402111    0.349785    0.710145     0.004307
NI4857   NI        0.432092    0.316962    0.710113     0.004307
NI4858   NI        0.432701    0.351058    0.745162     0.004307
CU4859   CU        0.461817    0.320807    0.745080     0.006663
NI4860   NI        0.461228    0.351449    0.711243     0.004307
NI4861   NI        0.499446    0.310538    0.729790     0.004307
NI4862   NI        0.498358    0.343971    0.762279     0.004307
NI4863   NI        0.530942    0.310104    0.761015     0.004307
NI4864   NI        0.531752    0.342191    0.731613     0.004307
NI4865   NI        0.562848    0.310725    0.727985     0.004307
NI4866   NI        0.562807    0.344836    0.761595     0.004307
NI4867   NI        0.594305    0.312124    0.756783     0.004307
NI4868   NI        0.595393    0.342707    0.727099     0.004307
NI4869   NI        0.628929    0.309333    0.725265     0.004307
NI4870   NI        0.628361    0.342371    0.758477     0.004307
NI4871   NI        0.659843    0.310518    0.757749     0.004307
CU4872   CU        0.657757    0.340338    0.724147     0.006663
NI4873   NI        0.690791    0.311663    0.727025     0.004307
NI4874   NI        0.690927    0.342388    0.757179     0.004307
NI4875   NI        0.723983    0.311734    0.757636     0.004307
CU4876   CU        0.726066    0.341661    0.724684     0.006663
NI4877   NI        0.752544    0.308230    0.724417     0.004307
NI4878   NI        0.755687    0.342751    0.757068     0.004307
NI4879   NI        0.078277    0.409848    0.723336     0.004307
CU4880   CU        0.109819    0.378865    0.724795     0.006663
CU4881   CU        0.112080    0.410650    0.754907     0.006663
NI4882   NI        0.154502    0.395020    0.756044     0.004307
NI4883   NI        0.136298    0.413804    0.720369     0.004307
NI4884   NI        0.171737    0.372577    0.723236     0.004307
NI4885   NI        0.183046    0.423283    0.756893     0.004307
NI4886   NI        0.201018    0.375227    0.759397     0.004307
NI4887   NI        0.206796    0.423265    0.717540     0.004307
NI4888   NI        0.246655    0.385515    0.708507     0.004307
NI4889   NI        0.226326    0.410703    0.759607     0.004307
NI4890   NI        0.283222    0.383539    0.742832     0.004307
NI4891   NI        0.275913    0.414163    0.710455     0.004307
NI4892   NI        0.310247    0.385723    0.707687     0.004307
NI4893   NI        0.308078    0.414846    0.741191     0.004307
CU4894   CU        0.343169    0.382596    0.738125     0.006663
NI4895   NI        0.340022    0.414164    0.709961     0.004307
CU4896   CU        0.372326    0.382263    0.708568     0.006663
CU4897   CU        0.372054    0.412863    0.742645     0.006663
CU4898   CU        0.401861    0.384337    0.744971     0.006663
CU4899   CU        0.403406    0.412562    0.711598     0.006663
NI4900   NI        0.432771    0.380790    0.710868     0.004307
NI4901   NI        0.432756    0.413921    0.744690     0.004307
NI4902   NI        0.468724    0.377290    0.756929     0.004307
NI4903   NI        0.461646    0.413190    0.712021     0.004307
NI4904   NI        0.492783    0.382641    0.713722     0.004307
NI4905   NI        0.503504    0.406046    0.754516     0.004307
CU4906   CU        0.531919    0.374660    0.761617     0.006663
CU4907   CU        0.523682    0.415053    0.714479     0.006663
NI4908   NI        0.563899    0.375156    0.731520     0.004307
NI4909   NI        0.563130    0.408322    0.761187     0.004307
NI4910   NI        0.597014    0.374348    0.761368     0.004307
NI4911   NI        0.587695    0.411548    0.716378     0.004307
NI4912   NI        0.627399    0.371166    0.726868     0.004307
NI4913   NI        0.628517    0.421478    0.759056     0.004307
NI4914   NI        0.658846    0.373784    0.760611     0.004307
NI4915   NI        0.657758    0.419605    0.723625     0.004307
NI4916   NI        0.669941    0.379294    0.717573     0.004307
NI4917   NI        0.695035    0.412555    0.758097     0.004307
CU4918   CU        0.727332    0.377313    0.759058     0.006663
NI4919   NI        0.728386    0.408393    0.723906     0.004307
NI4920   NI        0.757690    0.378149    0.723635     0.004307
NI4921   NI        0.755177    0.412962    0.758284     0.004307
CU4922   CU        0.785475    0.411940    0.721161     0.006663
NI4923   NI        0.079946    0.478389    0.724087     0.004307
NI4924   NI        0.108550    0.444338    0.724391     0.004307
CU4925   CU        0.107900    0.477251    0.759432     0.006663
CU4926   CU        0.141249    0.441564    0.757271     0.006663
CU4927   CU        0.137872    0.476801    0.727813     0.006663
NI4928   NI        0.167652    0.442591    0.721301     0.004307
NI4929   NI        0.168173    0.478248    0.761969     0.004307
NI4930   NI        0.217849    0.451863    0.750585     0.004307
CU4931   CU        0.203738    0.465081    0.709925     0.006663
CU4932   CU        0.242769    0.443194    0.711194     0.006663
NI4933   NI        0.249781    0.470034    0.768326     0.004307
NI4934   NI        0.275835    0.443137    0.744085     0.004307
CU4935   CU        0.274773    0.472145    0.709585     0.006663
NI4936   NI        0.307958    0.442779    0.709941     0.004307
NI4937   NI        0.308139    0.470718    0.741182     0.004307
CU4938   CU        0.339553    0.443011    0.742993     0.006663
NI4939   NI        0.340435    0.473638    0.710271     0.004307
NI4940   NI        0.369971    0.443981    0.710634     0.004307
NI4941   NI        0.370793    0.474041    0.742834     0.004307
NI4942   NI        0.400969    0.443938    0.744817     0.004307
NI4943   NI        0.399661    0.473112    0.710666     0.004307
CU4944   CU        0.431804    0.442077    0.712212     0.006663
NI4945   NI        0.430461    0.475355    0.763416     0.004307
NI4946   NI        0.461629    0.443223    0.763630     0.004307
NI4947   NI        0.463240    0.472325    0.711405     0.004307
NI4948   NI        0.495195    0.442460    0.728655     0.004307
NI4949   NI        0.498365    0.474860    0.761163     0.004307
NI4950   NI        0.531872    0.441107    0.757030     0.004307
NI4951   NI        0.525444    0.473494    0.716499     0.004307
NI4952   NI        0.555389    0.444120    0.713639     0.004307
NI4953   NI        0.561379    0.478837    0.766244     0.004307
NI4954   NI        0.596710    0.448258    0.761969     0.004307
NI4955   NI        0.584845    0.479078    0.711401     0.004307
NI4956   NI        0.619457    0.441978    0.716554     0.004307
NI4957   NI        0.630008    0.477405    0.761828     0.004307
CU4958   CU        0.663897    0.446696    0.757536     0.006663
NI4959   NI        0.664519    0.479600    0.726189     0.004307
NI4960   NI        0.694854    0.445332    0.725490     0.004307
NI4961   NI        0.696156    0.476197    0.757397     0.004307
CU4962   CU        0.727072    0.443746    0.758033     0.006663
NI4963   NI        0.727754    0.479203    0.724113     0.004307
NI4964   NI        0.754813    0.442589    0.721298     0.004307
NI4965   NI        0.751782    0.441919    0.794366     0.004307
NI4966   NI        0.786757    0.480469    0.723927     0.004307
NI4967   NI        0.108048    0.508687    0.724041     0.004307
NI4968   NI        0.108548    0.542674    0.757385     0.004307
NI4969   NI        0.138396    0.509654    0.760627     0.004307
CU4970   CU        0.137041    0.540391    0.724453     0.006663
CU4971   CU        0.165036    0.510699    0.726569     0.006663
CU4972   CU        0.169000    0.543699    0.757525     0.006663
CU4973   CU        0.206025    0.503598    0.723895     0.006663
NI4974   NI        0.197901    0.545211    0.726098     0.004307
NI4975   NI        0.245636    0.505464    0.712231     0.004307
NI4976   NI        0.236126    0.546264    0.757701     0.004307
NI4977   NI        0.277188    0.498335    0.744185     0.004307
CU4978   CU        0.275054    0.534986    0.712153     0.006663
NI4979   NI        0.306276    0.502339    0.710517     0.004307
NI4980   NI        0.303923    0.547981    0.763700     0.004307
NI4981   NI        0.340487    0.501697    0.743564     0.004307
NI4982   NI        0.334866    0.536230    0.712337     0.004307
CU4983   CU        0.368641    0.505801    0.710125     0.006663
NI4984   NI        0.367633    0.534674    0.741992     0.004307
CU4985   CU        0.397616    0.509150    0.768062     0.006663
NI4986   NI        0.398970    0.536633    0.711470     0.004307
NI4987   NI        0.428602    0.508424    0.715133     0.004307
NI4988   NI        0.433378    0.542844    0.762444     0.004307
NI4989   NI        0.466351    0.509558    0.762829     0.004307
NI4990   NI        0.467666    0.545001    0.730300     0.004307
NI4991   NI        0.501213    0.510964    0.730390     0.004307
NI4992   NI        0.499699    0.541255    0.762373     0.004307
NI4993   NI        0.530594    0.510486    0.764841     0.004307
NI4994   NI        0.530330    0.541495    0.732385     0.004307
NI4995   NI        0.562103    0.511997    0.731338     0.004307
NI4996   NI        0.563954    0.542270    0.764773     0.004307
NI4997   NI        0.598177    0.511758    0.761925     0.004307
NI4998   NI        0.591995    0.544260    0.732735     0.004307
NI4999   NI        0.629681    0.509828    0.729939     0.004307
NI5000   NI        0.625927    0.542202    0.761567     0.004307
NI5001   NI        0.660938    0.506833    0.760793     0.004307
NI5002   NI        0.649420    0.545031    0.716567     0.004307
CU5003   CU        0.696270    0.509522    0.724088     0.006663
NI5004   NI        0.691613    0.542271    0.757629     0.004307
CU5005   CU        0.725927    0.509861    0.758183     0.006663
CU5006   CU        0.724813    0.541358    0.724599     0.006663
NI5007   NI        0.755858    0.511450    0.723965     0.004307
CU5008   CU        0.754903    0.542688    0.755621     0.006663
NI5009   NI        0.108516    0.572153    0.723999     0.004307
NI5010   NI        0.139510    0.572567    0.755371     0.004307
NI5011   NI        0.138970    0.604572    0.723003     0.004307
NI5012   NI        0.168169    0.574145    0.724750     0.004307
NI5013   NI        0.168965    0.605670    0.756961     0.004307
NI5014   NI        0.201114    0.577246    0.756325     0.004307
NI5015   NI        0.203261    0.606807    0.721983     0.004307
NI5016   NI        0.234306    0.576141    0.724669     0.004307
NI5017   NI        0.234297    0.605915    0.757284     0.004307
NI5018   NI        0.267930    0.575341    0.760056     0.004307
NI5019   NI        0.265447    0.609830    0.726416     0.004307
NI5020   NI        0.304928    0.567581    0.711150     0.004307
NI5021   NI        0.299430    0.608401    0.759471     0.004307
NI5022   NI        0.333171    0.578684    0.766219     0.004307
CU5023   CU        0.337656    0.599891    0.710239     0.006663
NI5024   NI        0.367209    0.566830    0.712474     0.004307
NI5025   NI        0.365276    0.610369    0.760982     0.004307
CU5026   CU        0.404100    0.577847    0.760562     0.006663
NI5027   NI        0.404454    0.611169    0.723278     0.004307
NI5028   NI        0.436348    0.577583    0.726306     0.004307
NI5029   NI        0.432475    0.610662    0.760675     0.004307
NI5030   NI        0.464890    0.575533    0.763223     0.004307
NI5031   NI        0.466209    0.610287    0.727334     0.004307
NI5032   NI        0.498790    0.574631    0.729764     0.004307
CU5033   CU        0.496716    0.606898    0.760035     0.006663
NI5034   NI        0.531565    0.577221    0.761815     0.004307
NI5035   NI        0.526670    0.608623    0.728338     0.004307
NI5036   NI        0.561087    0.576554    0.732107     0.004307
CU5037   CU        0.562129    0.608994    0.762643     0.006663
NI5038   NI        0.596235    0.577675    0.759553     0.004307
CU5039   CU        0.597114    0.609942    0.725998     0.006663
NI5040   NI        0.621796    0.573382    0.707240     0.004307
CU5041   CU        0.627133    0.609734    0.758576     0.006663
NI5042   NI        0.654748    0.573942    0.753573     0.004307
CU5043   CU        0.662394    0.610555    0.721258     0.006663
NI5044   NI        0.690941    0.572491    0.723771     0.004307
NI5045   NI        0.689458    0.605106    0.755142     0.004307
CU5046   CU        0.721390    0.574321    0.754635     0.006663
NI5047   NI        0.722811    0.605689    0.720641     0.004307
NI5048   NI        0.751583    0.572986    0.721600     0.004307
NI5049   NI        0.172344    0.637690    0.722425     0.004307
NI5050   NI        0.203645    0.636302    0.757160     0.004307
NI5051   NI        0.202143    0.671326    0.722608     0.004307
NI5052   NI        0.233530    0.639389    0.724754     0.004307
NI5053   NI        0.233978    0.669619    0.756387     0.004307
NI5054   NI        0.266124    0.640969    0.758566     0.004307
NI5055   NI        0.264807    0.672214    0.724277     0.004307
NI5056   NI        0.301353    0.629463    0.712016     0.004307
NI5057   NI        0.299868    0.672899    0.757184     0.004307
NI5058   NI        0.332847    0.643338    0.761263     0.004307
NI5059   NI        0.334919    0.673477    0.726166     0.004307
CU5060   CU        0.368093    0.642747    0.729108     0.006663
NI5061   NI        0.366361    0.673358    0.758983     0.004307
NI5062   NI        0.398401    0.641691    0.757771     0.004307
NI5063   NI        0.398448    0.674829    0.726124     0.004307
NI5064   NI        0.432622    0.642857    0.728482     0.004307
NI5065   NI        0.432548    0.674083    0.757118     0.004307
NI5066   NI        0.466379    0.642434    0.760170     0.004307
NI5067   NI        0.467240    0.674925    0.726256     0.004307
NI5068   NI        0.496639    0.640722    0.727376     0.004307
NI5069   NI        0.498739    0.674736    0.758626     0.004307
NI5070   NI        0.529539    0.640661    0.759912     0.004307
CU5071   CU        0.529907    0.673491    0.724771     0.006663
NI5072   NI        0.560600    0.641372    0.725457     0.004307
NI5073   NI        0.564322    0.672354    0.756709     0.004307
NI5074   NI        0.594694    0.639102    0.759129     0.004307
NI5075   NI        0.595154    0.673181    0.723990     0.004307
NI5076   NI        0.629085    0.640117    0.724316     0.004307
NI5077   NI        0.627314    0.669096    0.755605     0.004307
NI5078   NI        0.659515    0.637552    0.759146     0.004307
NI5079   NI        0.659305    0.671457    0.724635     0.004307
NI5080   NI        0.693709    0.637363    0.721470     0.004307
NI5081   NI        0.233530    0.701966    0.723239     0.004307
NI5082   NI        0.267964    0.701329    0.753491     0.004307
NI5083   NI        0.269212    0.735277    0.725122     0.004307
NI5084   NI        0.299436    0.705131    0.723816     0.004307
NI5085   NI        0.299921    0.734788    0.755958     0.004307
NI5086   NI        0.333148    0.705189    0.757878     0.004307
NI5087   NI        0.332735    0.736489    0.722336     0.004307
CU5088   CU        0.365574    0.707539    0.727280     0.006663
NI5089   NI        0.363700    0.736336    0.761184     0.004307
NI5090   NI        0.398459    0.703609    0.758564     0.004307
NI5091   NI        0.398292    0.735255    0.726611     0.004307
NI5092   NI        0.432339    0.705200    0.725934     0.004307
NI5093   NI        0.430600    0.734662    0.760557     0.004307
NI5094   NI        0.464763    0.704339    0.757279     0.004307
NI5095   NI        0.466750    0.737251    0.725271     0.004307
CU5096   CU        0.496456    0.705379    0.725962     0.006663
NI5097   NI        0.498489    0.736665    0.756484     0.004307
CU5098   CU        0.531690    0.704761    0.759615     0.006663
CU5099   CU        0.530093    0.735232    0.725014     0.006663
CU5100   CU        0.562013    0.702897    0.723783     0.006663
NI5101   NI        0.563299    0.734558    0.754989     0.004307
NI5102   NI        0.594123    0.702958    0.755283     0.004307
NI5103   NI        0.593903    0.733616    0.720306     0.004307
NI5104   NI        0.627111    0.703967    0.721179     0.004307
NI5105   NI        0.300798    0.765239    0.722949     0.004307
NI5106   NI        0.330236    0.764250    0.754994     0.004307
NI5107   NI        0.365124    0.766046    0.725638     0.004307
CU5108   CU        0.398949    0.764288    0.757530     0.006663
NI5109   NI        0.397975    0.795657    0.723755     0.004307
NI5110   NI        0.431041    0.764520    0.726662     0.004307
NI5111   NI        0.465518    0.766183    0.757088     0.004307
NI5112   NI        0.465609    0.795634    0.725735     0.004307
NI5113   NI        0.497093    0.767559    0.722000     0.004307
NI5114   NI        0.533570    0.766113    0.755262     0.004307
NI5115   NI        0.565270    0.763718    0.723130     0.004307
NI5116   NI        0.338849    0.152978    0.794447     0.004307
NI5117   NI        0.400233    0.152835    0.791743     0.004307
NI5118   NI        0.463103    0.152065    0.790105     0.004307
NI5119   NI        0.529878    0.153637    0.792253     0.004307
NI5120   NI        0.263997    0.225628    0.768254     0.004307
NI5121   NI        0.330926    0.207286    0.806014     0.004307
NI5122   NI        0.298185    0.223447    0.828484     0.004307
NI5123   NI        0.331743    0.240840    0.780700     0.004307
NI5124   NI        0.365797    0.185628    0.790937     0.004307
NI5125   NI        0.367244    0.215225    0.827636     0.004307
NI5126   NI        0.398128    0.182970    0.822892     0.004307
NI5127   NI        0.400000    0.213944    0.791570     0.004307
NI5128   NI        0.430322    0.180729    0.790958     0.004307
NI5129   NI        0.432492    0.215079    0.824716     0.004307
NI5130   NI        0.465578    0.183318    0.821821     0.004307
CU5131   CU        0.465273    0.213025    0.793004     0.006663
NI5132   NI        0.496319    0.183063    0.792335     0.004307
NI5133   NI        0.495389    0.214067    0.823218     0.004307
NI5134   NI        0.528274    0.214285    0.791492     0.004307
NI5135   NI        0.561548    0.184267    0.792248     0.004307
NI5136   NI        0.563239    0.215441    0.823649     0.004307
NI5137   NI        0.593093    0.214765    0.790926     0.004307
CU5138   CU        0.204020    0.284575    0.791367     0.006663
NI5139   NI        0.232268    0.250493    0.791374     0.004307
NI5140   NI        0.233438    0.280635    0.822819     0.004307
NI5141   NI        0.264061    0.249354    0.824161     0.004307
NI5142   NI        0.263428    0.280996    0.792421     0.004307
NI5143   NI        0.292226    0.249377    0.792085     0.004307
CU5144   CU        0.299105    0.279721    0.823220     0.006663
NI5145   NI        0.335224    0.243634    0.825956     0.004307
NI5146   NI        0.331133    0.279721    0.795868     0.004307
NI5147   NI        0.369957    0.244320    0.796608     0.004307
NI5148   NI        0.362371    0.275872    0.825042     0.004307
NI5149   NI        0.399063    0.242673    0.828077     0.004307
NI5150   NI        0.400505    0.290772    0.775673     0.004307
CU5151   CU        0.433262    0.243585    0.793412     0.006663
NI5152   NI        0.432434    0.274635    0.824641     0.004307
NI5153   NI        0.466547    0.245343    0.823860     0.004307
NI5154   NI        0.464133    0.275397    0.792816     0.004307
CU5155   CU        0.497080    0.244847    0.792153     0.006663
NI5156   NI        0.496360    0.278627    0.824173     0.004307
NI5157   NI        0.528878    0.246517    0.823379     0.004307
NI5158   NI        0.532962    0.278985    0.791031     0.004307
NI5159   NI        0.564279    0.244622    0.791062     0.004307
NI5160   NI        0.561401    0.278025    0.824526     0.004307
NI5161   NI        0.595251    0.248200    0.821620     0.004307
NI5162   NI        0.594536    0.279342    0.789857     0.004307
CU5163   CU        0.627282    0.249089    0.789251     0.006663
NI5164   NI        0.627456    0.277541    0.822300     0.004307
NI5165   NI        0.657959    0.281721    0.791297     0.004307
NI5166   NI        0.136471    0.342666    0.790774     0.004307
NI5167   NI        0.168953    0.312722    0.787828     0.004307
NI5168   NI        0.199897    0.313426    0.822760     0.004307
NI5169   NI        0.201795    0.344272    0.794622     0.004307
NI5170   NI        0.234386    0.313103    0.792930     0.004307
NI5171   NI        0.233793    0.346395    0.824574     0.004307
NI5172   NI        0.265955    0.309868    0.824083     0.004307
NI5173   NI        0.264441    0.344076    0.792618     0.004307
NI5174   NI        0.297328    0.308590    0.792130     0.004307
NI5175   NI        0.326367    0.348794    0.808660     0.004307
NI5176   NI        0.329242    0.309861    0.826482     0.004307
CU5177   CU        0.342107    0.353106    0.769695     0.006663
CU5178   CU        0.370668    0.321889    0.774387     0.006663
NI5179   NI        0.385696    0.343407    0.812945     0.004307
NI5180   NI        0.395322    0.304586    0.823658     0.004307
NI5181   NI        0.402159    0.352152    0.774590     0.004307
NI5182   NI        0.432402    0.319895    0.778428     0.004307
NI5183   NI        0.429069    0.335946    0.820188     0.004307
NI5184   NI        0.464388    0.308701    0.820565     0.004307
NI5185   NI        0.464629    0.349511    0.797624     0.004307
NI5186   NI        0.498299    0.311696    0.794071     0.004307
NI5187   NI        0.499448    0.344737    0.824349     0.004307
NI5188   NI        0.532442    0.311325    0.824679     0.004307
NI5189   NI        0.530080    0.343255    0.792584     0.004307
NI5190   NI        0.563093    0.309408    0.793091     0.004307
CU5191   CU        0.562437    0.345998    0.823670     0.006663
NI5192   NI        0.595162    0.309861    0.823431     0.004307
NI5193   NI        0.595467    0.342432    0.793216     0.004307
NI5194   NI        0.627175    0.310297    0.791096     0.004307
NI5195   NI        0.628261    0.342129    0.822383     0.004307
NI5196   NI        0.657017    0.309844    0.823496     0.004307
NI5197   NI        0.660453    0.341625    0.791122     0.004307
CU5198   CU        0.692549    0.312661    0.790628     0.006663
NI5199   NI        0.721538    0.345561    0.788240     0.004307
CU5200   CU        0.137739    0.410916    0.792920     0.006663
CU5201   CU        0.170179    0.376837    0.794595     0.006663
NI5202   NI        0.169130    0.411091    0.825883     0.004307
NI5203   NI        0.202146    0.378372    0.825348     0.004307
NI5204   NI        0.200383    0.409897    0.796040     0.004307
NI5205   NI        0.231188    0.378083    0.791880     0.004307
NI5206   NI        0.233362    0.409229    0.824691     0.004307
NI5207   NI        0.262943    0.376923    0.825531     0.004307
NI5208   NI        0.262302    0.408457    0.794642     0.004307
NI5209   NI        0.313604    0.381554    0.772899     0.004307
NI5210   NI        0.306666    0.412180    0.835810     0.004307
CU5211   CU        0.333542    0.380153    0.835280     0.006663
NI5212   NI        0.343505    0.412417    0.774307     0.004307
NI5213   NI        0.372096    0.382381    0.776035     0.004307
CU5214   CU        0.364501    0.412006    0.829638     0.006663
CU5215   CU        0.396522    0.380997    0.833258     0.006663
NI5216   NI        0.400272    0.415557    0.778491     0.004307
NI5217   NI        0.432999    0.381119    0.780644     0.004307
NI5218   NI        0.431394    0.413726    0.830173     0.004307
CU5219   CU        0.465427    0.380332    0.827892     0.006663
NI5220   NI        0.466792    0.409913    0.793993     0.004307
NI5221   NI        0.499113    0.377437    0.792884     0.004307
NI5222   NI        0.499008    0.412054    0.823166     0.004307
NI5223   NI        0.531474    0.378684    0.824016     0.004307
NI5224   NI        0.531898    0.411405    0.791151     0.004307
NI5225   NI        0.566532    0.376947    0.793939     0.004307
NI5226   NI        0.560393    0.412954    0.822989     0.004307
NI5227   NI        0.599135    0.373553    0.823810     0.004307
NI5228   NI        0.596492    0.409232    0.791882     0.004307
NI5229   NI        0.628307    0.372125    0.791984     0.004307
CU5230   CU        0.628134    0.409445    0.822007     0.006663
NI5231   NI        0.661122    0.380688    0.819960     0.004307
NI5232   NI        0.662833    0.414350    0.791783     0.004307
NI5233   NI        0.693368    0.379714    0.787978     0.004307
NI5234   NI        0.691484    0.408683    0.822961     0.004307
NI5235   NI        0.722979    0.409813    0.792591     0.004307
NI5236   NI        0.138536    0.473566    0.792198     0.004307
NI5237   NI        0.169080    0.444529    0.791732     0.004307
NI5238   NI        0.170372    0.474399    0.825015     0.004307
NI5239   NI        0.200372    0.443434    0.825247     0.004307
CU5240   CU        0.198913    0.475289    0.792835     0.006663
NI5241   NI        0.231539    0.440720    0.794927     0.004307
CU5242   CU        0.231451    0.474512    0.826574     0.006663
CU5243   CU        0.264929    0.443559    0.825545     0.006663
CU5244   CU        0.291381    0.477485    0.780935     0.006663
NI5245   NI        0.302985    0.444018    0.806733     0.004307
NI5246   NI        0.297150    0.482577    0.826888     0.004307
CU5247   CU        0.336551    0.442627    0.834964     0.006663
NI5248   NI        0.332448    0.477760    0.803772     0.004307
NI5249   NI        0.362493    0.448865    0.800848     0.004307
NI5250   NI        0.367648    0.477364    0.832380     0.004307
NI5251   NI        0.398343    0.446607    0.830604     0.004307
NI5252   NI        0.400707    0.477039    0.797753     0.004307
CU5253   CU        0.432710    0.445222    0.796666     0.006663
CU5254   CU        0.431771    0.478370    0.827643     0.006663
CU5255   CU        0.465816    0.443140    0.826643     0.006663
NI5256   NI        0.463036    0.476390    0.795315     0.004307
NI5257   NI        0.497411    0.442275    0.789062     0.004307
NI5258   NI        0.497392    0.476516    0.825599     0.004307
NI5259   NI        0.531404    0.443701    0.823856     0.004307
NI5260   NI        0.528320    0.477696    0.794466     0.004307
NI5261   NI        0.561594    0.442226    0.792367     0.004307
NI5262   NI        0.564540    0.477174    0.823646     0.004307
CU5263   CU        0.596154    0.444830    0.823600     0.006663
NI5264   NI        0.596082    0.477455    0.794532     0.004307
NI5265   NI        0.629299    0.447757    0.793481     0.004307
CU5266   CU        0.628334    0.477347    0.825516     0.006663
NI5267   NI        0.662138    0.444790    0.822011     0.004307
NI5268   NI        0.664483    0.474773    0.792791     0.004307
CU5269   CU        0.695499    0.443463    0.790017     0.006663
NI5270   NI        0.695797    0.478759    0.821807     0.004307
NI5271   NI        0.725102    0.475517    0.791370     0.004307
NI5272   NI        0.140478    0.545734    0.789140     0.004307
NI5273   NI        0.169563    0.508620    0.795295     0.004307
NI5274   NI        0.200062    0.505698    0.826037     0.004307
CU5275   CU        0.200871    0.513818    0.764917     0.006663
NI5276   NI        0.260724    0.505504    0.784440     0.004307
NI5277   NI        0.237803    0.548678    0.826115     0.004307
CU5278   CU        0.271019    0.513940    0.826206     0.006663
NI5279   NI        0.269209    0.545692    0.794410     0.004307
CU5280   CU        0.303039    0.514377    0.796227     0.006663
NI5281   NI        0.301366    0.545965    0.825385     0.004307
CU5282   CU        0.333197    0.515194    0.827411     0.006663
CU5283   CU        0.333806    0.547094    0.796064     0.006663
NI5284   NI        0.366489    0.508069    0.799943     0.004307
NI5285   NI        0.366992    0.545349    0.825170     0.004307
NI5286   NI        0.400084    0.510383    0.826175     0.004307
NI5287   NI        0.403808    0.542913    0.794819     0.004307
NI5288   NI        0.433280    0.507209    0.792884     0.004307
NI5289   NI        0.433800    0.543964    0.825724     0.004307
NI5290   NI        0.464630    0.510734    0.826405     0.004307
NI5291   NI        0.466300    0.543987    0.793862     0.004307
NI5292   NI        0.499344    0.510950    0.793913     0.004307
CU5293   CU        0.497733    0.541130    0.826376     0.006663
NI5294   NI        0.531659    0.507516    0.825913     0.004307
CU5295   CU        0.530755    0.545559    0.794774     0.006663
NI5296   NI        0.565189    0.511321    0.795503     0.004307
NI5297   NI        0.565469    0.543341    0.823956     0.004307
NI5298   NI        0.597980    0.510408    0.824675     0.004307
CU5299   CU        0.596992    0.543564    0.793149     0.006663
NI5300   NI        0.629445    0.510432    0.792946     0.004307
NI5301   NI        0.630867    0.539721    0.824377     0.004307
NI5302   NI        0.660654    0.507825    0.820906     0.004307
NI5303   NI        0.661349    0.541331    0.791137     0.004307
CU5304   CU        0.695611    0.508832    0.788876     0.006663
NI5305   NI        0.721917    0.544196    0.789654     0.004307
NI5306   NI        0.170392    0.574354    0.787732     0.004307
NI5307   NI        0.204289    0.576946    0.819529     0.004307
NI5308   NI        0.203265    0.606329    0.789473     0.004307
NI5309   NI        0.235089    0.575665    0.790133     0.004307
NI5310   NI        0.234371    0.609600    0.823581     0.004307
NI5311   NI        0.269337    0.578483    0.826843     0.004307
NI5312   NI        0.268935    0.609194    0.791887     0.004307
CU5313   CU        0.299468    0.577227    0.792840     0.006663
NI5314   NI        0.301022    0.608630    0.823115     0.004307
NI5315   NI        0.332085    0.577539    0.826313     0.004307
NI5316   NI        0.334018    0.610008    0.793857     0.004307
CU5317   CU        0.365926    0.577005    0.793722     0.006663
NI5318   NI        0.366534    0.608020    0.825032     0.004307
NI5319   NI        0.398511    0.575927    0.826337     0.004307
NI5320   NI        0.398721    0.607017    0.794483     0.004307
NI5321   NI        0.432071    0.575977    0.793971     0.004307
NI5322   NI        0.430840    0.608718    0.824309     0.004307
CU5323   CU        0.464475    0.575929    0.822350     0.006663
NI5324   NI        0.464902    0.609018    0.791768     0.004307
NI5325   NI        0.498940    0.574894    0.793869     0.004307
NI5326   NI        0.495163    0.607128    0.823191     0.004307
NI5327   NI        0.533262    0.575561    0.826546     0.004307
NI5328   NI        0.530337    0.608540    0.793268     0.004307
NI5329   NI        0.562410    0.576749    0.791873     0.004307
NI5330   NI        0.561894    0.608387    0.823687     0.004307
NI5331   NI        0.593522    0.576548    0.822787     0.004307
NI5332   NI        0.595612    0.610353    0.791502     0.004307
CU5333   CU        0.629449    0.575105    0.790289     0.006663
NI5334   NI        0.628456    0.606701    0.822006     0.004307
NI5335   NI        0.658795    0.575629    0.822134     0.004307
NI5336   NI        0.661572    0.609205    0.793480     0.004307
CU5337   CU        0.691606    0.574886    0.787826     0.006663
NI5338   NI        0.235386    0.637822    0.790601     0.004307
NI5339   NI        0.266055    0.639954    0.821829     0.004307
CU5340   CU        0.267019    0.672911    0.789390     0.006663
NI5341   NI        0.299764    0.640909    0.790535     0.004307
NI5342   NI        0.299833    0.671598    0.821649     0.004307
NI5343   NI        0.333964    0.641932    0.823500     0.004307
NI5344   NI        0.330613    0.673502    0.791012     0.004307
NI5345   NI        0.367433    0.640733    0.792304     0.004307
NI5346   NI        0.364861    0.670773    0.823012     0.004307
NI5347   NI        0.398198    0.641165    0.826208     0.004307
NI5348   NI        0.398267    0.671231    0.792805     0.004307
CU5349   CU        0.432472    0.641975    0.790836     0.006663
CU5350   CU        0.428618    0.674315    0.824484     0.006663
CU5351   CU        0.464805    0.640944    0.823464     0.006663
NI5352   NI        0.463934    0.673289    0.790622     0.004307
NI5353   NI        0.497714    0.639449    0.792710     0.004307
NI5354   NI        0.495941    0.672734    0.822953     0.004307
NI5355   NI        0.532772    0.642420    0.825312     0.004307
CU5356   CU        0.531632    0.672178    0.789195     0.006663
CU5357   CU        0.563396    0.639985    0.792175     0.006663
NI5358   NI        0.565756    0.672068    0.824519     0.004307
NI5359   NI        0.594954    0.639572    0.822706     0.004307
CU5360   CU        0.595431    0.670660    0.789497     0.006663
NI5361   NI        0.627504    0.640350    0.790411     0.004307
NI5362   NI        0.298819    0.702464    0.789621     0.004307
NI5363   NI        0.333311    0.736995    0.790841     0.004307
NI5364   NI        0.365968    0.703896    0.790181     0.004307
NI5365   NI        0.398493    0.704528    0.821229     0.004307
CU5366   CU        0.398486    0.735838    0.791552     0.006663
CU5367   CU        0.432024    0.702548    0.793044     0.006663
NI5368   NI        0.465063    0.702862    0.820731     0.004307
CU5369   CU        0.466231    0.735431    0.788574     0.006663
NI5370   NI        0.498019    0.704685    0.791177     0.004307
NI5371   NI        0.531776    0.734765    0.792226     0.004307
CU5372   CU        0.565365    0.702107    0.791474     0.006663
NI5373   NI        0.330997    0.278380    0.856200     0.004307
NI5374   NI        0.366788    0.245348    0.858793     0.004307
CU5375   CU        0.397616    0.276542    0.856556     0.006663
NI5376   NI        0.433240    0.246664    0.856858     0.004307
NI5377   NI        0.466227    0.278247    0.852411     0.004307
NI5378   NI        0.497469    0.247177    0.857626     0.004307
NI5379   NI        0.529508    0.278768    0.854127     0.004307
NI5380   NI        0.265397    0.347718    0.856399     0.004307
NI5381   NI        0.296314    0.308520    0.855787     0.004307
NI5382   NI        0.355072    0.345167    0.841990     0.004307
NI5383   NI        0.366030    0.308586    0.855623     0.004307
NI5384   NI        0.366795    0.341684    0.884187     0.004307
NI5385   NI        0.396240    0.311261    0.886418     0.004307
NI5386   NI        0.397758    0.340912    0.853580     0.004307
NI5387   NI        0.428376    0.306428    0.856394     0.004307
NI5388   NI        0.428880    0.340117    0.881792     0.004307
NI5389   NI        0.464158    0.313881    0.887235     0.004307
NI5390   NI        0.465354    0.353274    0.862922     0.004307
NI5391   NI        0.499058    0.309681    0.854288     0.004307
CU5392   CU        0.500877    0.341099    0.886016     0.006663
NI5393   NI        0.530854    0.343520    0.856275     0.004307
NI5394   NI        0.563400    0.312581    0.855250     0.004307
NI5395   NI        0.574584    0.372710    0.898126     0.004307
NI5396   NI        0.234232    0.376255    0.855891     0.004307
NI5397   NI        0.264896    0.410379    0.855232     0.004307
NI5398   NI        0.295258    0.377768    0.856394     0.004307
NI5399   NI        0.298680    0.413518    0.882150     0.004307
NI5400   NI        0.361203    0.376898    0.910000     0.004307
NI5401   NI        0.338213    0.412472    0.865395     0.004307
NI5402   NI        0.366596    0.381928    0.863939     0.004307
NI5403   NI        0.370390    0.413767    0.894248     0.004307
NI5404   NI        0.400006    0.372688    0.887956     0.004307
NI5405   NI        0.400560    0.413043    0.860937     0.004307
NI5406   NI        0.433283    0.383090    0.860333     0.004307
CU5407   CU        0.431766    0.416886    0.892808     0.006663
CU5408   CU        0.462896    0.386563    0.891627     0.006663
NI5409   NI        0.466612    0.412392    0.857712     0.004307
NI5410   NI        0.500428    0.377999    0.855367     0.004307
NI5411   NI        0.499699    0.408199    0.885277     0.004307
NI5412   NI        0.532518    0.377081    0.887936     0.004307
CU5413   CU        0.530644    0.412155    0.855776     0.006663
NI5414   NI        0.562407    0.380586    0.855681     0.004307
NI5415   NI        0.563065    0.411671    0.886903     0.004307
CU5416   CU        0.593256    0.414943    0.856500     0.006663
NI5417   NI        0.605010    0.376104    0.870628     0.004307
NI5418   NI        0.234029    0.441891    0.854672     0.004307
NI5419   NI        0.264319    0.476857    0.857580     0.004307
NI5420   NI        0.299184    0.450422    0.856329     0.004307
NI5421   NI        0.301430    0.482417    0.885690     0.004307
NI5422   NI        0.330014    0.446960    0.885135     0.004307
NI5423   NI        0.330522    0.480904    0.855301     0.004307
NI5424   NI        0.368935    0.443004    0.861619     0.004307
NI5425   NI        0.364251    0.477869    0.885713     0.004307
NI5426   NI        0.401046    0.446553    0.890249     0.004307
CU5427   CU        0.399137    0.479215    0.859804     0.006663
NI5428   NI        0.433630    0.447026    0.859646     0.004307
NI5429   NI        0.430821    0.478102    0.888913     0.004307
NI5430   NI        0.467794    0.444770    0.889767     0.004307
CU5431   CU        0.464976    0.475653    0.857961     0.006663
NI5432   NI        0.499441    0.446218    0.858659     0.004307
NI5433   NI        0.499636    0.476820    0.888534     0.004307
NI5434   NI        0.532536    0.444011    0.887687     0.004307
NI5435   NI        0.531204    0.476752    0.856743     0.004307
NI5436   NI        0.564621    0.445977    0.854069     0.004307
NI5437   NI        0.562762    0.475772    0.885232     0.004307
CU5438   CU        0.596658    0.475565    0.856178     0.006663
NI5439   NI        0.629008    0.442320    0.851637     0.004307
NI5440   NI        0.234989    0.510984    0.852667     0.004307
NI5441   NI        0.269871    0.544857    0.856522     0.004307
NI5442   NI        0.303400    0.516941    0.858896     0.004307
CU5443   CU        0.333834    0.509713    0.890204     0.006663
NI5444   NI        0.334444    0.545608    0.858262     0.004307
NI5445   NI        0.367842    0.510987    0.858830     0.004307
CU5446   CU        0.367679    0.543138    0.887351     0.006663
NI5447   NI        0.399160    0.511968    0.889721     0.004307
NI5448   NI        0.401412    0.541854    0.856470     0.004307
CU5449   CU        0.431466    0.511728    0.857783     0.006663
CU5450   CU        0.431856    0.545605    0.887479     0.006663
NI5451   NI        0.467151    0.510780    0.883767     0.004307
NI5452   NI        0.466049    0.545092    0.854911     0.004307
NI5453   NI        0.499770    0.510364    0.856085     0.004307
NI5454   NI        0.497702    0.542594    0.885848     0.004307
NI5455   NI        0.529501    0.510334    0.887918     0.004307
NI5456   NI        0.533752    0.540766    0.856095     0.004307
NI5457   NI        0.563907    0.508077    0.856268     0.004307
NI5458   NI        0.595749    0.544281    0.854920     0.004307
NI5459   NI        0.626737    0.510309    0.856191     0.004307
NI5460   NI        0.300926    0.577687    0.855897     0.004307
NI5461   NI        0.333392    0.607958    0.858313     0.004307
NI5462   NI        0.365540    0.578387    0.857231     0.004307
NI5463   NI        0.397462    0.572974    0.886102     0.004307
NI5464   NI        0.397009    0.608372    0.856404     0.004307
NI5465   NI        0.430272    0.576958    0.855712     0.004307
NI5466   NI        0.468092    0.576762    0.884699     0.004307
NI5467   NI        0.463589    0.607084    0.854595     0.004307
NI5468   NI        0.498731    0.575028    0.854994     0.004307
NI5469   NI        0.531597    0.607534    0.856662     0.004307
CU5470   CU        0.564226    0.576776    0.854961     0.006663
NI5471   NI        0.367021    0.640796    0.857603     0.004307
NI5472   NI        0.432228    0.639684    0.853177     0.004307
NI5473   NI        0.499713    0.639603    0.852531     0.004307
