data_00001
_audit_creation_method   'DISCUS'

_data_chemical_name_common 'Pd.cell: Pearson 85'

_cell_length_a             53.0257
_cell_length_b             53.0257
_cell_length_c             53.0257
_cell_angle_alpha     90.0000
_cell_angle_beta      90.0000
_cell_angle_gamma     90.0000

_symmetry_space_group_name_H-M   'P1              '

loop_
_atom_site_label
_atom_site_symbol
_atom_site_fract_x
_atom_site_fract_y
_atom_site_fract_z
_atom_site_u_iso_or_equiv
NI1   NI        0.388173    0.252809    0.018018     0.004307
NI2   NI        0.469412    0.275820    0.048096     0.004307
NI3   NI        0.542602    0.276566    0.048455     0.004307
NI4   NI        0.296215    0.324461    0.037813     0.004307
NI5   NI        0.339872    0.302599    0.040293     0.004307
NI6   NI        0.394327    0.350095    0.049323     0.004307
NI7   NI        0.404585    0.292643    0.044028     0.004307
NI8   NI        0.456897    0.365374    0.055314     0.004307
PD9   PD        0.504563    0.314207    0.047432     0.005394
PD10   PD        0.541833    0.350901    0.047694     0.005394
NI11   NI        0.577002    0.316122    0.047592     0.004307
NI12   NI        0.623074    0.351074    0.076372     0.004307
NI13   NI        0.256326    0.365590    0.034685     0.004307
NI14   NI        0.311788    0.436870    0.013279     0.004307
NI15   NI        0.355176    0.390311    0.049918     0.004307
NI16   NI        0.390180    0.447146    0.063069     0.004307
PD17   PD        0.430241    0.387348    0.047810     0.005394
NI18   NI        0.429920    0.424992    0.012312     0.004307
NI19   NI        0.465936    0.389201    0.011173     0.004307
NI20   NI        0.468357    0.423225    0.046964     0.004307
PD21   PD        0.503217    0.385140    0.046255     0.005394
NI22   NI        0.468979    0.459436    0.008542     0.004307
NI23   NI        0.515561    0.413225    0.034200     0.004307
NI24   NI        0.577293    0.390549    0.046823     0.004307
NI25   NI        0.612417    0.428574    0.048703     0.004307
NI26   NI        0.653256    0.390145    0.048401     0.004307
NI27   NI        0.267304    0.441237    0.035764     0.004307
NI28   NI        0.327778    0.524726    0.040243     0.004307
NI29   NI        0.360076    0.467426    0.047914     0.004307
NI30   NI        0.365859    0.484250    0.000769     0.004307
NI31   NI        0.398145    0.511961    0.025509     0.004307
NI32   NI        0.445850    0.476298    0.038226     0.004307
NI33   NI        0.434665    0.497835    0.010289     0.004307
NI34   NI        0.466593    0.466731    0.014268     0.004307
NI35   NI        0.472972    0.521456    0.029762     0.004307
NI36   NI        0.497482    0.460546    0.021988     0.004307
NI37   NI        0.508276    0.492967    0.002440     0.004307
NI38   NI        0.540833    0.464356    0.010675     0.004307
NI39   NI        0.565595    0.516188    0.033383     0.004307
NI40   NI        0.577488    0.463241    0.047590     0.004307
NI41   NI        0.615386    0.500312    0.047223     0.004307
NI42   NI        0.637728    0.454210    0.064448     0.004307
NI43   NI        0.285333    0.535346    0.041881     0.004307
NI44   NI        0.323182    0.571944    0.037125     0.004307
NI45   NI        0.350216    0.528758    0.022469     0.004307
NI46   NI        0.396656    0.585454    0.042888     0.004307
NI47   NI        0.430229    0.546183    0.047416     0.004307
NI48   NI        0.467699    0.544951    0.031937     0.004307
NI49   NI        0.459481    0.575384    0.056280     0.004307
NI50   NI        0.523768    0.529940    0.042560     0.004307
NI51   NI        0.541077    0.573960    0.050881     0.004307
NI52   NI        0.575832    0.536459    0.044606     0.004307
NI53   NI        0.599882    0.577347    0.041536     0.004307
NI54   NI        0.648575    0.540091    0.047083     0.004307
NI55   NI        0.354860    0.611734    0.046753     0.004307
NI56   NI        0.382293    0.648770    0.062414     0.004307
NI57   NI        0.427655    0.613151    0.049027     0.004307
NI58   NI        0.481497    0.658669    0.020990     0.004307
NI59   NI        0.493364    0.611703    0.039996     0.004307
NI60   NI        0.529682    0.644744    0.050912     0.004307
NI61   NI        0.571699    0.615676    0.052375     0.004307
NI62   NI        0.281564    0.185253    0.121580     0.004307
NI63   NI        0.394873    0.205258    0.121908     0.004307
NI64   NI        0.431619    0.167080    0.123248     0.004307
NI65   NI        0.389213    0.188558    0.078355     0.004307
NI66   NI        0.450915    0.214163    0.108612     0.004307
NI67   NI        0.504851    0.167466    0.124426     0.004307
NI68   NI        0.471152    0.198144    0.076352     0.004307
PD69   PD        0.542560    0.205055    0.121578     0.005394
NI70   NI        0.616995    0.206142    0.122226     0.004307
NI71   NI        0.246964    0.278262    0.126003     0.004307
NI72   NI        0.263938    0.241578    0.117518     0.004307
NI73   NI        0.262779    0.278002    0.078300     0.004307
PD74   PD        0.321193    0.279164    0.122531     0.005394
NI75   NI        0.357338    0.242173    0.124450     0.004307
NI76   NI        0.357967    0.288363    0.087259     0.004307
NI77   NI        0.393657    0.240873    0.085452     0.004307
PD78   PD        0.392734    0.279843    0.121893     0.005394
NI79   NI        0.445415    0.233128    0.102708     0.004307
PD80   PD        0.431696    0.279301    0.084935     0.005394
NI81   NI        0.470278    0.240085    0.082351     0.004307
PD82   PD        0.469528    0.276705    0.120423     0.005394
PD83   PD        0.504396    0.241828    0.123426     0.005394
PD84   PD        0.506603    0.278920    0.082167     0.005394
PD85   PD        0.542879    0.241926    0.085293     0.005394
PD86   PD        0.542816    0.277523    0.120207     0.005394
PD87   PD        0.580376    0.242021    0.119763     0.005394
PD88   PD        0.581283    0.278633    0.082171     0.005394
PD89   PD        0.616240    0.279572    0.119379     0.005394
NI90   NI        0.653628    0.240751    0.120723     0.004307
NI91   NI        0.655148    0.277125    0.084211     0.004307
NI92   NI        0.691151    0.279420    0.121856     0.004307
NI93   NI        0.162224    0.310010    0.118079     0.004307
NI94   NI        0.244263    0.367477    0.109701     0.004307
NI95   NI        0.297921    0.278941    0.117067     0.004307
NI96   NI        0.242096    0.362292    0.056892     0.004307
NI97   NI        0.318760    0.318160    0.085218     0.004307
NI98   NI        0.310834    0.366319    0.106677     0.004307
PD99   PD        0.356742    0.316615    0.122877     0.005394
PD100   PD        0.357750    0.350016    0.084792     0.005394
NI101   NI        0.397166    0.323694    0.067540     0.004307
PD102   PD        0.394909    0.354812    0.121003     0.005394
NI103   NI        0.442081    0.314903    0.094985     0.004307
PD104   PD        0.432913    0.349730    0.083158     0.005394
PD105   PD        0.468597    0.314496    0.086210     0.005394
PD106   PD        0.468968    0.351505    0.122497     0.005394
PD107   PD        0.505291    0.315004    0.119993     0.005394
PD108   PD        0.507618    0.351700    0.082632     0.005394
PD109   PD        0.543319    0.314371    0.086131     0.005394
PD110   PD        0.543000    0.353039    0.122473     0.005394
PD111   PD        0.581118    0.314721    0.119995     0.005394
PD112   PD        0.578514    0.351006    0.083391     0.005394
NI113   NI        0.606793    0.300507    0.076298     0.004307
PD114   PD        0.616165    0.351250    0.118650     0.005394
PD115   PD        0.655369    0.314172    0.121383     0.005394
NI116   NI        0.653738    0.352571    0.086221     0.004307
PD117   PD        0.689734    0.353188    0.121468     0.005394
NI118   NI        0.728980    0.316916    0.121655     0.004307
NI119   NI        0.171091    0.435481    0.119263     0.004307
NI120   NI        0.207724    0.401518    0.090782     0.004307
NI121   NI        0.209257    0.428591    0.086091     0.004307
NI122   NI        0.200371    0.376121    0.079977     0.004307
NI123   NI        0.254494    0.438776    0.109642     0.004307
NI124   NI        0.289622    0.374829    0.119280     0.004307
NI125   NI        0.265543    0.426006    0.060437     0.004307
NI126   NI        0.322657    0.394509    0.090795     0.004307
NI127   NI        0.299337    0.437855    0.098469     0.004307
PD128   PD        0.356636    0.386446    0.122674     0.005394
NI129   NI        0.379861    0.430637    0.069459     0.004307
PD130   PD        0.393278    0.388206    0.083283     0.005394
NI131   NI        0.405409    0.434363    0.112353     0.004307
PD132   PD        0.430656    0.388590    0.120443     0.005394
PD133   PD        0.429788    0.422765    0.084480     0.005394
PD134   PD        0.467234    0.385630    0.084904     0.005394
PD135   PD        0.467036    0.423322    0.121363     0.005394
PD136   PD        0.504762    0.388492    0.122646     0.005394
NI137   NI        0.500369    0.447681    0.071217     0.004307
PD138   PD        0.540558    0.386573    0.081877     0.005394
PD139   PD        0.541364    0.424108    0.117909     0.005394
NI140   NI        0.580505    0.403309    0.112748     0.004307
NI141   NI        0.566069    0.435827    0.075980     0.004307
PD142   PD        0.614761    0.387878    0.081657     0.005394
PD143   PD        0.614840    0.426315    0.120478     0.005394
PD144   PD        0.652347    0.391396    0.119574     0.005394
PD145   PD        0.653309    0.425788    0.084498     0.005394
NI146   NI        0.716148    0.382353    0.085468     0.004307
PD147   PD        0.688365    0.429471    0.119729     0.005394
NI148   NI        0.739036    0.417890    0.113379     0.004307
NI149   NI        0.723757    0.431697    0.082819     0.004307
NI150   NI        0.763362    0.432290    0.119551     0.004307
NI151   NI        0.154666    0.525761    0.118236     0.004307
NI152   NI        0.205272    0.491356    0.088983     0.004307
NI153   NI        0.218120    0.515224    0.078868     0.004307
NI154   NI        0.259788    0.476071    0.074796     0.004307
NI155   NI        0.250340    0.502582    0.118120     0.004307
NI156   NI        0.282473    0.464740    0.121166     0.004307
NI157   NI        0.286641    0.501870    0.080282     0.004307
NI158   NI        0.318734    0.480033    0.077009     0.004307
NI159   NI        0.307478    0.514131    0.127638     0.004307
NI160   NI        0.366806    0.473273    0.097627     0.004307
NI161   NI        0.352127    0.513947    0.068972     0.004307
NI162   NI        0.397364    0.436816    0.065738     0.004307
PD163   PD        0.395503    0.499890    0.123480     0.005394
PD164   PD        0.432870    0.463817    0.120062     0.005394
NI165   NI        0.424164    0.506040    0.069763     0.004307
NI166   NI        0.467862    0.463513    0.089749     0.004307
NI167   NI        0.463397    0.485867    0.100229     0.004307
NI168   NI        0.511875    0.475325    0.113670     0.004307
NI169   NI        0.499833    0.497389    0.076456     0.004307
NI170   NI        0.544648    0.460487    0.077529     0.004307
NI171   NI        0.544430    0.510755    0.117794     0.004307
PD172   PD        0.576319    0.462160    0.119469     0.005394
PD173   PD        0.576974    0.497968    0.080084     0.005394
NI174   NI        0.634295    0.466521    0.060235     0.004307
NI175   NI        0.615523    0.513615    0.128741     0.004307
NI176   NI        0.663004    0.439322    0.128523     0.004307
NI177   NI        0.651834    0.499959    0.082755     0.004307
NI178   NI        0.682674    0.475577    0.049901     0.004307
PD179   PD        0.688625    0.501965    0.118627     0.005394
PD180   PD        0.724377    0.465625    0.121043     0.005394
NI181   NI        0.737409    0.479383    0.071023     0.004307
NI182   NI        0.779404    0.501318    0.127997     0.004307
NI183   NI        0.205579    0.563534    0.092673     0.004307
NI184   NI        0.250732    0.542588    0.084505     0.004307
NI185   NI        0.263909    0.577260    0.120969     0.004307
NI186   NI        0.289297    0.550854    0.117712     0.004307
NI187   NI        0.280938    0.577804    0.095061     0.004307
NI188   NI        0.328330    0.532832    0.069035     0.004307
PD189   PD        0.321385    0.572991    0.128027     0.005394
NI190   NI        0.369374    0.565601    0.110572     0.004307
NI191   NI        0.356774    0.575772    0.087625     0.004307
NI192   NI        0.410685    0.534494    0.060232     0.004307
PD193   PD        0.392152    0.575519    0.121635     0.005394
NI194   NI        0.430318    0.537127    0.107234     0.004307
NI195   NI        0.439525    0.575655    0.071233     0.004307
PD196   PD        0.466855    0.534056    0.081108     0.005394
PD197   PD        0.465146    0.573155    0.119502     0.005394
PD198   PD        0.499037    0.524449    0.115841     0.005394
NI199   NI        0.502518    0.585181    0.083919     0.004307
NI200   NI        0.541759    0.549194    0.081993     0.004307
NI201   NI        0.551038    0.567579    0.100840     0.004307
NI202   NI        0.571163    0.535007    0.119045     0.004307
NI203   NI        0.593101    0.575206    0.075102     0.004307
NI204   NI        0.626014    0.545505    0.054006     0.004307
NI205   NI        0.611840    0.585393    0.125342     0.004307
NI206   NI        0.658183    0.527699    0.122381     0.004307
NI207   NI        0.643572    0.569851    0.065983     0.004307
NI208   NI        0.682503    0.542015    0.085722     0.004307
NI209   NI        0.677030    0.577771    0.125628     0.004307
NI210   NI        0.750391    0.564349    0.099088     0.004307
NI211   NI        0.201189    0.606568    0.123672     0.004307
NI212   NI        0.254771    0.665282    0.116433     0.004307
NI213   NI        0.260049    0.629659    0.111772     0.004307
NI214   NI        0.279806    0.634786    0.088453     0.004307
NI215   NI        0.328123    0.611819    0.067015     0.004307
NI216   NI        0.316982    0.651805    0.119547     0.004307
NI217   NI        0.370291    0.614609    0.095761     0.004307
NI218   NI        0.352035    0.649290    0.082804     0.004307
NI219   NI        0.374789    0.607532    0.091392     0.004307
NI220   NI        0.389435    0.653870    0.118606     0.004307
NI221   NI        0.416453    0.608218    0.088414     0.004307
NI222   NI        0.416846    0.639935    0.093674     0.004307
NI223   NI        0.463969    0.618609    0.085741     0.004307
NI224   NI        0.456865    0.645147    0.126654     0.004307
PD225   PD        0.497860    0.613546    0.126465     0.005394
NI226   NI        0.512108    0.635430    0.091662     0.004307
NI227   NI        0.542935    0.618998    0.100555     0.004307
NI228   NI        0.553389    0.649884    0.135949     0.004307
NI229   NI        0.577552    0.628725    0.119235     0.004307
NI230   NI        0.570744    0.646199    0.087002     0.004307
NI231   NI        0.625111    0.615776    0.084781     0.004307
NI232   NI        0.636686    0.664003    0.106537     0.004307
NI233   NI        0.653611    0.619120    0.122158     0.004307
NI234   NI        0.672279    0.650978    0.078897     0.004307
NI235   NI        0.684313    0.647984    0.125850     0.004307
NI236   NI        0.725164    0.648511    0.085204     0.004307
NI237   NI        0.254058    0.678205    0.094688     0.004307
NI238   NI        0.331576    0.708645    0.130594     0.004307
NI239   NI        0.372367    0.717758    0.088417     0.004307
NI240   NI        0.409864    0.689790    0.086251     0.004307
NI241   NI        0.389857    0.728715    0.116661     0.004307
NI242   NI        0.425300    0.685088    0.134243     0.004307
NI243   NI        0.423210    0.721650    0.091414     0.004307
NI244   NI        0.461447    0.689896    0.076732     0.004307
NI245   NI        0.468875    0.726893    0.112217     0.004307
NI246   NI        0.490479    0.700812    0.102734     0.004307
NI247   NI        0.529819    0.748959    0.072761     0.004307
NI248   NI        0.539576    0.696930    0.074768     0.004307
NI249   NI        0.536345    0.719259    0.111758     0.004307
NI250   NI        0.577009    0.686283    0.120303     0.004307
NI251   NI        0.617212    0.725890    0.126171     0.004307
NI252   NI        0.646605    0.685857    0.107946     0.004307
NI253   NI        0.409688    0.772001    0.121826     0.004307
NI254   NI        0.496389    0.770828    0.104689     0.004307
NI255   NI        0.306406    0.140426    0.194311     0.004307
NI256   NI        0.392642    0.133820    0.197138     0.004307
NI257   NI        0.419346    0.106762    0.180848     0.004307
NI258   NI        0.430658    0.131593    0.157942     0.004307
NI259   NI        0.488252    0.134804    0.187182     0.004307
NI260   NI        0.483108    0.063413    0.180538     0.004307
NI261   NI        0.507369    0.131560    0.159862     0.004307
NI262   NI        0.540672    0.132751    0.196813     0.004307
NI263   NI        0.617524    0.132064    0.196805     0.004307
NI264   NI        0.245910    0.213161    0.192900     0.004307
NI265   NI        0.279802    0.186464    0.164739     0.004307
NI266   NI        0.261101    0.223436    0.146480     0.004307
NI267   NI        0.320766    0.174253    0.157829     0.004307
NI268   NI        0.316966    0.208081    0.194475     0.004307
NI269   NI        0.353001    0.170773    0.197097     0.004307
NI270   NI        0.357308    0.205119    0.158127     0.004307
NI271   NI        0.396569    0.169566    0.159903     0.004307
NI272   NI        0.390384    0.204490    0.197543     0.004307
NI273   NI        0.456267    0.166758    0.180468     0.004307
PD274   PD        0.432354    0.204826    0.157479     0.005394
NI275   NI        0.468945    0.170107    0.161387     0.004307
NI276   NI        0.475672    0.208008    0.187474     0.004307
PD277   PD        0.505886    0.168302    0.195072     0.005394
PD278   PD        0.505963    0.205720    0.161295     0.005394
PD279   PD        0.543366    0.167490    0.158250     0.005394
PD280   PD        0.545043    0.204361    0.195067     0.005394
NI281   NI        0.580526    0.155935    0.171119     0.004307
PD282   PD        0.580424    0.205451    0.157436     0.005394
NI283   NI        0.612513    0.161217    0.130774     0.004307
PD284   PD        0.616208    0.207084    0.194010     0.005394
NI285   NI        0.652459    0.171386    0.198150     0.004307
PD286   PD        0.654308    0.205084    0.158918     0.005394
NI287   NI        0.688969    0.206678    0.196373     0.004307
NI288   NI        0.174205    0.278712    0.196943     0.004307
NI289   NI        0.182628    0.249051    0.182801     0.004307
NI290   NI        0.210086    0.278680    0.161374     0.004307
NI291   NI        0.231826    0.235524    0.179806     0.004307
NI292   NI        0.246954    0.280214    0.196297     0.004307
NI293   NI        0.275250    0.238399    0.202917     0.004307
NI294   NI        0.287325    0.264492    0.161800     0.004307
NI295   NI        0.307681    0.228766    0.130296     0.004307
NI296   NI        0.315376    0.264065    0.165014     0.004307
NI297   NI        0.359105    0.227700    0.171786     0.004307
NI298   NI        0.339599    0.260942    0.166915     0.004307
NI299   NI        0.391914    0.243597    0.164297     0.004307
NI300   NI        0.385563    0.266520    0.191741     0.004307
PD301   PD        0.434925    0.240240    0.193998     0.005394
PD302   PD        0.430525    0.280014    0.157669     0.005394
NI303   NI        0.448443    0.232578    0.154452     0.004307
NI304   NI        0.474274    0.263332    0.178633     0.004307
NI305   NI        0.496802    0.218767    0.189291     0.004307
NI306   NI        0.519549    0.267756    0.132590     0.004307
PD307   PD        0.542860    0.243818    0.157091     0.005394
NI308   NI        0.536915    0.299638    0.171510     0.004307
PD309   PD        0.580713    0.242908    0.196256     0.005394
NI310   NI        0.576783    0.274248    0.162741     0.004307
PD311   PD        0.617555    0.242685    0.157504     0.005394
PD312   PD        0.617742    0.279370    0.194150     0.005394
PD313   PD        0.653568    0.244525    0.194306     0.005394
NI314   NI        0.648898    0.286874    0.154888     0.004307
NI315   NI        0.718930    0.244630    0.152716     0.004307
PD316   PD        0.691360    0.278948    0.193868     0.005394
NI317   NI        0.746434    0.226666    0.191277     0.004307
NI318   NI        0.752740    0.279554    0.170699     0.004307
NI319   NI        0.788725    0.269310    0.208195     0.004307
NI320   NI        0.131029    0.332250    0.195452     0.004307
NI321   NI        0.167801    0.324268    0.168421     0.004307
NI322   NI        0.161890    0.355516    0.164132     0.004307
NI323   NI        0.181259    0.330259    0.206024     0.004307
NI324   NI        0.212135    0.351308    0.165327     0.004307
NI325   NI        0.228719    0.308995    0.131471     0.004307
NI326   NI        0.253139    0.340551    0.171587     0.004307
NI327   NI        0.282336    0.326536    0.183474     0.004307
NI328   NI        0.284368    0.363609    0.147262     0.004307
NI329   NI        0.294271    0.314525    0.154588     0.004307
PD330   PD        0.321462    0.353306    0.195956     0.005394
PD331   PD        0.358538    0.314958    0.193797     0.005394
NI332   NI        0.371010    0.348624    0.155978     0.004307
PD333   PD        0.392105    0.314828    0.157115     0.005394
PD334   PD        0.393070    0.352163    0.194776     0.005394
PD335   PD        0.430528    0.314485    0.196115     0.005394
PD336   PD        0.430026    0.353028    0.158622     0.005394
NI337   NI        0.467291    0.280052    0.129114     0.004307
PD338   PD        0.468353    0.351038    0.194628     0.005394
NI339   NI        0.510952    0.299567    0.170146     0.004307
PD340   PD        0.505336    0.349253    0.159376     0.005394
PD341   PD        0.544245    0.314053    0.154694     0.005394
PD342   PD        0.539525    0.353398    0.195420     0.005394
NI343   NI        0.595817    0.310436    0.214789     0.004307
PD344   PD        0.579643    0.353742    0.157497     0.005394
NI345   NI        0.599094    0.313839    0.166679     0.004307
PD346   PD        0.617402    0.352015    0.193019     0.005394
PD347   PD        0.653142    0.316640    0.195167     0.005394
PD348   PD        0.653131    0.354334    0.156316     0.005394
PD349   PD        0.690004    0.317860    0.158290     0.005394
PD350   PD        0.688794    0.356285    0.194142     0.005394
PD351   PD        0.727068    0.316819    0.194148     0.005394
NI352   NI        0.728990    0.354760    0.153683     0.004307
NI353   NI        0.776707    0.306330    0.134052     0.004307
NI354   NI        0.764463    0.342336    0.169274     0.004307
NI355   NI        0.796428    0.358398    0.155430     0.004307
NI356   NI        0.100834    0.432133    0.196783     0.004307
NI357   NI        0.142501    0.404052    0.202373     0.004307
NI358   NI        0.137359    0.437417    0.161933     0.004307
NI359   NI        0.154931    0.398344    0.152042     0.004307
NI360   NI        0.185045    0.436873    0.169811     0.004307
NI361   NI        0.209145    0.399723    0.180990     0.004307
NI362   NI        0.218003    0.423386    0.137073     0.004307
NI363   NI        0.246916    0.390437    0.157645     0.004307
NI364   NI        0.227020    0.429918    0.188886     0.004307
NI365   NI        0.279024    0.399491    0.185556     0.004307
NI366   NI        0.286234    0.435798    0.150060     0.004307
NI367   NI        0.351100    0.391226    0.134964     0.004307
PD368   PD        0.319432    0.426812    0.193975     0.005394
PD369   PD        0.346815    0.390074    0.175771     0.005394
PD370   PD        0.358653    0.427275    0.156850     0.005394
PD371   PD        0.394186    0.390369    0.158623     0.005394
PD372   PD        0.393870    0.427720    0.195889     0.005394
PD373   PD        0.430645    0.384268    0.179198     0.005394
PD374   PD        0.429124    0.424389    0.157716     0.005394
PD375   PD        0.468698    0.387455    0.155492     0.005394
PD376   PD        0.452730    0.427531    0.200985     0.005394
PD377   PD        0.504437    0.388327    0.194658     0.005394
PD378   PD        0.503704    0.424993    0.155184     0.005394
PD379   PD        0.541461    0.385663    0.157744     0.005394
PD380   PD        0.541113    0.424697    0.192345     0.005394
PD381   PD        0.591166    0.396216    0.201607     0.005394
PD382   PD        0.579807    0.424886    0.158230     0.005394
PD383   PD        0.615562    0.388060    0.155009     0.005394
PD384   PD        0.614699    0.426347    0.192637     0.005394
PD385   PD        0.650434    0.391110    0.191693     0.005394
PD386   PD        0.653610    0.425767    0.157239     0.005394
NI387   NI        0.697160    0.379110    0.145887     0.004307
PD388   PD        0.688490    0.430012    0.193960     0.005394
PD389   PD        0.726302    0.392077    0.194831     0.005394
NI390   NI        0.732911    0.449051    0.153851     0.004307
PD391   PD        0.762323    0.393158    0.157749     0.005394
NI392   NI        0.759849    0.432949    0.193985     0.004307
PD393   PD        0.798777    0.393828    0.193724     0.005394
NI394   NI        0.797467    0.429281    0.156418     0.004307
NI395   NI        0.837960    0.426852    0.193740     0.004307
NI396   NI        0.076644    0.518109    0.182262     0.004307
NI397   NI        0.104405    0.469281    0.183383     0.004307
NI398   NI        0.136925    0.489116    0.148422     0.004307
NI399   NI        0.166360    0.481112    0.141856     0.004307
NI400   NI        0.176245    0.506419    0.183560     0.004307
NI401   NI        0.197245    0.466393    0.182694     0.004307
NI402   NI        0.204235    0.525416    0.127818     0.004307
NI403   NI        0.243598    0.459759    0.154472     0.004307
NI404   NI        0.243622    0.481360    0.200172     0.004307
PD405   PD        0.268733    0.460809    0.194776     0.005394
PD406   PD        0.280413    0.502686    0.169871     0.005394
PD407   PD        0.306560    0.480534    0.165010     0.005394
PD408   PD        0.311365    0.488448    0.198366     0.005394
PD409   PD        0.356084    0.464628    0.198112     0.005394
NI410   NI        0.352359    0.494565    0.142572     0.004307
PD411   PD        0.394884    0.462424    0.157050     0.005394
PD412   PD        0.373371    0.508849    0.171493     0.005394
PD413   PD        0.430362    0.462427    0.193866     0.005394
NI414   NI        0.439331    0.511538    0.149694     0.004307
NI415   NI        0.476015    0.474435    0.151723     0.004307
PD416   PD        0.469267    0.498778    0.190958     0.005394
PD417   PD        0.508754    0.465876    0.184843     0.005394
PD418   PD        0.508977    0.511366    0.156777     0.005394
PD419   PD        0.539177    0.472959    0.155754     0.005394
PD420   PD        0.539425    0.501669    0.194818     0.005394
PD421   PD        0.576258    0.460960    0.192906     0.005394
PD422   PD        0.577793    0.499802    0.155088     0.005394
PD423   PD        0.614612    0.466246    0.157172     0.005394
PD424   PD        0.618425    0.515106    0.189147     0.005394
NI425   NI        0.654293    0.465384    0.190086     0.004307
NI426   NI        0.644301    0.523528    0.171720     0.004307
PD427   PD        0.687448    0.466854    0.157102     0.005394
PD428   PD        0.685413    0.502015    0.194237     0.005394
NI429   NI        0.700085    0.484189    0.203227     0.004307
PD430   PD        0.724207    0.503355    0.158412     0.005394
PD431   PD        0.761126    0.465794    0.158331     0.005394
NI432   NI        0.748441    0.497525    0.168608     0.004307
NI433   NI        0.820489    0.473506    0.205346     0.004307
NI434   NI        0.808010    0.497802    0.123359     0.004307
NI435   NI        0.824992    0.510752    0.203240     0.004307
NI436   NI        0.124132    0.519583    0.187586     0.004307
NI437   NI        0.160706    0.533546    0.154159     0.004307
NI438   NI        0.152141    0.573690    0.184137     0.004307
NI439   NI        0.187735    0.546110    0.199498     0.004307
NI440   NI        0.200203    0.568187    0.153857     0.004307
NI441   NI        0.226832    0.515815    0.192959     0.004307
NI442   NI        0.216977    0.589810    0.199157     0.004307
PD443   PD        0.288425    0.524648    0.195329     0.005394
PD444   PD        0.288143    0.569761    0.167810     0.005394
NI445   NI        0.312200    0.565251    0.137737     0.004307
NI446   NI        0.297399    0.571444    0.174078     0.004307
PD447   PD        0.330950    0.524501    0.228120     0.005394
PD448   PD        0.356577    0.582565    0.158875     0.005394
PD449   PD        0.403201    0.544997    0.149112     0.005394
PD450   PD        0.381738    0.595007    0.197046     0.005394
PD451   PD        0.414726    0.524739    0.196581     0.005394
PD452   PD        0.427914    0.568866    0.153848     0.005394
PD453   PD        0.459121    0.528353    0.150081     0.005394
PD454   PD        0.470845    0.587123    0.192907     0.005394
PD455   PD        0.516318    0.548578    0.217654     0.005394
NI456   NI        0.490241    0.564718    0.142077     0.004307
PD457   PD        0.544703    0.547319    0.154753     0.005394
PD458   PD        0.545239    0.585846    0.189426     0.005394
PD459   PD        0.582036    0.552110    0.188795     0.005394
NI460   NI        0.555516    0.566237    0.155763     0.004307
PD461   PD        0.613232    0.536964    0.152683     0.005394
PD462   PD        0.612941    0.594137    0.193151     0.005394
NI463   NI        0.664831    0.525194    0.168938     0.004307
PD464   PD        0.645937    0.574925    0.162215     0.005394
NI465   NI        0.691196    0.558250    0.147622     0.004307
PD466   PD        0.685173    0.575730    0.195886     0.005394
NI467   NI        0.726068    0.541427    0.197508     0.004307
NI468   NI        0.757585    0.568666    0.145533     0.004307
NI469   NI        0.784102    0.534011    0.175734     0.004307
NI470   NI        0.746780    0.601446    0.183452     0.004307
NI471   NI        0.837442    0.572906    0.188902     0.004307
NI472   NI        0.136228    0.622865    0.191759     0.004307
NI473   NI        0.148838    0.618221    0.140187     0.004307
NI474   NI        0.167694    0.665344    0.187318     0.004307
NI475   NI        0.191077    0.624243    0.170513     0.004307
NI476   NI        0.210960    0.652138    0.166437     0.004307
NI477   NI        0.259243    0.612410    0.161590     0.004307
NI478   NI        0.248368    0.662276    0.194794     0.004307
PD479   PD        0.285014    0.613562    0.200986     0.005394
NI480   NI        0.282123    0.659658    0.156895     0.004307
NI481   NI        0.307428    0.614164    0.152280     0.004307
NI482   NI        0.293714    0.644339    0.177490     0.004307
PD483   PD        0.359102    0.617598    0.194072     0.005394
NI484   NI        0.359496    0.669503    0.196727     0.004307
NI485   NI        0.412721    0.617572    0.141559     0.004307
PD486   PD        0.387580    0.644216    0.179136     0.005394
PD487   PD        0.432404    0.619308    0.190804     0.005394
NI488   NI        0.431487    0.654560    0.152866     0.004307
NI489   NI        0.452799    0.638542    0.132053     0.004307
NI490   NI        0.468017    0.653759    0.196509     0.004307
PD491   PD        0.509395    0.625533    0.189906     0.005394
NI492   NI        0.507329    0.661660    0.154640     0.004307
PD493   PD        0.541225    0.623732    0.155157     0.005394
PD494   PD        0.555425    0.650742    0.185614     0.005394
PD495   PD        0.570855    0.620262    0.201099     0.005394
NI496   NI        0.580463    0.678060    0.132415     0.004307
NI497   NI        0.606624    0.613049    0.168800     0.004307
NI498   NI        0.620992    0.654636    0.193479     0.004307
PD499   PD        0.651818    0.613329    0.195741     0.005394
NI500   NI        0.654546    0.663506    0.154291     0.004307
NI501   NI        0.685124    0.615036    0.161646     0.004307
NI502   NI        0.693350    0.657364    0.193346     0.004307
NI503   NI        0.705952    0.629104    0.166228     0.004307
NI504   NI        0.725475    0.649957    0.164039     0.004307
NI505   NI        0.765992    0.622491    0.160347     0.004307
NI506   NI        0.785493    0.662354    0.193636     0.004307
NI507   NI        0.799299    0.612402    0.190013     0.004307
NI508   NI        0.209286    0.696637    0.193706     0.004307
NI509   NI        0.246523    0.697139    0.155532     0.004307
NI510   NI        0.241583    0.766900    0.169985     0.004307
NI511   NI        0.282871    0.692742    0.192761     0.004307
NI512   NI        0.283149    0.734260    0.161096     0.004307
NI513   NI        0.318328    0.695697    0.157561     0.004307
NI514   NI        0.311088    0.744692    0.197658     0.004307
NI515   NI        0.356585    0.691378    0.193207     0.004307
NI516   NI        0.355696    0.732520    0.158656     0.004307
NI517   NI        0.381824    0.716643    0.137451     0.004307
NI518   NI        0.388234    0.728039    0.170996     0.004307
NI519   NI        0.431460    0.695627    0.187732     0.004307
NI520   NI        0.427892    0.727865    0.149810     0.004307
NI521   NI        0.466137    0.693034    0.148779     0.004307
NI522   NI        0.464849    0.734818    0.181887     0.004307
PD523   PD        0.495477    0.694433    0.190738     0.005394
NI524   NI        0.518030    0.732689    0.132141     0.004307
NI525   NI        0.539708    0.691811    0.156726     0.004307
NI526   NI        0.538931    0.736735    0.179529     0.004307
NI527   NI        0.577010    0.682837    0.192856     0.004307
NI528   NI        0.570287    0.710873    0.147890     0.004307
NI529   NI        0.625015    0.703693    0.133652     0.004307
NI530   NI        0.618104    0.736334    0.197659     0.004307
NI531   NI        0.634601    0.680449    0.221374     0.004307
NI532   NI        0.652364    0.727483    0.162343     0.004307
NI533   NI        0.677802    0.703323    0.142449     0.004307
NI534   NI        0.699134    0.730561    0.183452     0.004307
NI535   NI        0.731956    0.693397    0.193449     0.004307
NI536   NI        0.281812    0.781015    0.175867     0.004307
NI537   NI        0.310246    0.753326    0.146310     0.004307
NI538   NI        0.322444    0.802689    0.197715     0.004307
NI539   NI        0.340251    0.749707    0.188178     0.004307
NI540   NI        0.391991    0.766180    0.139569     0.004307
NI541   NI        0.390512    0.802924    0.167275     0.004307
NI542   NI        0.427499    0.751231    0.196369     0.004307
NI543   NI        0.440217    0.814867    0.156134     0.004307
NI544   NI        0.456510    0.767645    0.157186     0.004307
NI545   NI        0.457080    0.792870    0.201044     0.004307
NI546   NI        0.499791    0.771974    0.180666     0.004307
NI547   NI        0.508616    0.795470    0.148553     0.004307
NI548   NI        0.544906    0.765775    0.161942     0.004307
NI549   NI        0.541044    0.799775    0.197873     0.004307
NI550   NI        0.569471    0.782828    0.176038     0.004307
NI551   NI        0.622351    0.771961    0.161027     0.004307
NI552   NI        0.612980    0.789928    0.189910     0.004307
NI553   NI        0.657227    0.766220    0.200230     0.004307
NI554   NI        0.409149    0.837950    0.189662     0.004307
NI555   NI        0.532656    0.854502    0.179722     0.004307
NI556   NI        0.387841    0.075725    0.273320     0.004307
NI557   NI        0.459166    0.061758    0.263646     0.004307
NI558   NI        0.545704    0.030628    0.274203     0.004307
NI559   NI        0.240477    0.116156    0.251338     0.004307
NI560   NI        0.277602    0.062817    0.233320     0.004307
NI561   NI        0.265115    0.111035    0.245727     0.004307
NI562   NI        0.320138    0.131304    0.272779     0.004307
NI563   NI        0.358992    0.098293    0.250062     0.004307
NI564   NI        0.346827    0.129638    0.223931     0.004307
NI565   NI        0.388431    0.099141    0.221968     0.004307
NI566   NI        0.395127    0.131512    0.267949     0.004307
NI567   NI        0.425527    0.059908    0.233401     0.004307
NI568   NI        0.431756    0.141357    0.227101     0.004307
NI569   NI        0.473574    0.094367    0.227340     0.004307
NI570   NI        0.448598    0.112581    0.267695     0.004307
NI571   NI        0.501013    0.097782    0.270512     0.004307
PD572   PD        0.505549    0.133365    0.232602     0.005394
NI573   NI        0.548510    0.096817    0.231064     0.004307
NI574   NI        0.540685    0.098188    0.237363     0.004307
NI575   NI        0.576758    0.070020    0.264733     0.004307
NI576   NI        0.612176    0.134684    0.205943     0.004307
NI577   NI        0.620633    0.131229    0.263949     0.004307
NI578   NI        0.653062    0.096400    0.270560     0.004307
NI579   NI        0.654729    0.132787    0.234084     0.004307
NI580   NI        0.689464    0.125036    0.249268     0.004307
NI581   NI        0.176074    0.200623    0.270433     0.004307
NI582   NI        0.210244    0.167016    0.270215     0.004307
NI583   NI        0.220559    0.197988    0.244328     0.004307
NI584   NI        0.248301    0.173568    0.245329     0.004307
NI585   NI        0.243284    0.205769    0.270073     0.004307
NI586   NI        0.265473    0.163592    0.249848     0.004307
NI587   NI        0.246056    0.168721    0.234665     0.004307
NI588   NI        0.306837    0.177287    0.221590     0.004307
NI589   NI        0.306647    0.187404    0.271858     0.004307
PD590   PD        0.354815    0.173161    0.267295     0.005394
NI591   NI        0.370262    0.197426    0.223289     0.004307
NI592   NI        0.389008    0.172025    0.233476     0.004307
PD593   PD        0.392975    0.206889    0.268973     0.005394
NI594   NI        0.437901    0.153642    0.242218     0.004307
PD595   PD        0.429266    0.205110    0.234502     0.005394
NI596   NI        0.464004    0.165522    0.231667     0.004307
NI597   NI        0.443313    0.194659    0.272208     0.004307
PD598   PD        0.507002    0.171561    0.264886     0.005394
PD599   PD        0.507125    0.207196    0.231216     0.005394
PD600   PD        0.542290    0.169868    0.230597     0.005394
NI601   NI        0.541966    0.193080    0.246263     0.004307
PD602   PD        0.579962    0.168423    0.266953     0.005394
PD603   PD        0.581594    0.207880    0.233461     0.005394
PD604   PD        0.616299    0.169310    0.233506     0.005394
NI605   NI        0.653661    0.171319    0.274394     0.004307
PD606   PD        0.656267    0.172498    0.264472     0.005394
PD607   PD        0.653165    0.207143    0.232602     0.005394
NI608   NI        0.690970    0.169161    0.233869     0.004307
PD609   PD        0.692022    0.207145    0.271004     0.005394
NI610   NI        0.724926    0.163683    0.263095     0.004307
NI611   NI        0.727632    0.207245    0.235290     0.004307
NI612   NI        0.741143    0.198581    0.257349     0.004307
NI613   NI        0.057755    0.276336    0.265827     0.004307
NI614   NI        0.135732    0.240239    0.272148     0.004307
NI615   NI        0.115060    0.295166    0.219974     0.004307
NI616   NI        0.179252    0.229474    0.229582     0.004307
NI617   NI        0.145925    0.247774    0.264302     0.004307
NI618   NI        0.218101    0.210852    0.263060     0.004307
NI619   NI        0.206660    0.285399    0.211474     0.004307
NI620   NI        0.235651    0.227797    0.232572     0.004307
NI621   NI        0.234366    0.274952    0.252101     0.004307
NI622   NI        0.278617    0.250371    0.252643     0.004307
PD623   PD        0.281984    0.280582    0.231639     0.005394
NI624   NI        0.328223    0.217369    0.244383     0.004307
PD625   PD        0.320907    0.281733    0.267713     0.005394
NI626   NI        0.346368    0.244868    0.284037     0.004307
PD627   PD        0.359146    0.280925    0.233415     0.005394
NI628   NI        0.370949    0.233074    0.229713     0.004307
PD629   PD        0.392890    0.277728    0.270978     0.005394
PD630   PD        0.430443    0.242438    0.269219     0.005394
PD631   PD        0.413878    0.261706    0.220477     0.005394
PD632   PD        0.467278    0.242332    0.230008     0.005394
PD633   PD        0.476355    0.273019    0.260643     0.005394
PD634   PD        0.506984    0.223198    0.267446     0.005394
PD635   PD        0.504640    0.279248    0.233459     0.005394
PD636   PD        0.543022    0.242558    0.231947     0.005394
PD637   PD        0.543646    0.280723    0.267178     0.005394
PD638   PD        0.580651    0.243955    0.266980     0.005394
PD639   PD        0.578953    0.280986    0.230107     0.005394
PD640   PD        0.616079    0.243024    0.231787     0.005394
NI641   NI        0.613296    0.269223    0.235915     0.004307
PD642   PD        0.653584    0.242938    0.268928     0.005394
PD643   PD        0.655043    0.278845    0.231599     0.005394
PD644   PD        0.690361    0.243136    0.230760     0.005394
NI645   NI        0.703183    0.292625    0.247788     0.004307
PD646   PD        0.728448    0.246440    0.271625     0.005394
PD647   PD        0.727246    0.282004    0.232860     0.005394
PD648   PD        0.763264    0.244937    0.233848     0.005394
PD649   PD        0.762356    0.282933    0.270292     0.005394
NI650   NI        0.801220    0.246027    0.268371     0.004307
NI651   NI        0.799912    0.284892    0.232911     0.004307
NI652   NI        0.835704    0.280195    0.270511     0.004307
NI653   NI        0.099687    0.353100    0.266808     0.004307
NI654   NI        0.110155    0.330272    0.282963     0.004307
NI655   NI        0.094779    0.341892    0.217809     0.004307
NI656   NI        0.179722    0.328297    0.229571     0.004307
NI657   NI        0.161132    0.344893    0.236335     0.004307
NI658   NI        0.199163    0.312898    0.250927     0.004307
NI659   NI        0.209000    0.357150    0.235560     0.004307
NI660   NI        0.227713    0.319364    0.223827     0.004307
NI661   NI        0.234184    0.350534    0.247678     0.004307
NI662   NI        0.288663    0.299465    0.245109     0.004307
NI663   NI        0.277994    0.363167    0.221990     0.004307
NI664   NI        0.315833    0.326590    0.226543     0.004307
PD665   PD        0.320248    0.351816    0.269902     0.005394
PD666   PD        0.360379    0.310086    0.251887     0.005394
NI667   NI        0.365934    0.343218    0.218505     0.004307
PD668   PD        0.388259    0.329806    0.229147     0.005394
PD669   PD        0.410545    0.345954    0.252378     0.005394
PD670   PD        0.432645    0.317169    0.268724     0.005394
PD671   PD        0.434660    0.351433    0.216638     0.005394
PD672   PD        0.470515    0.315480    0.230100     0.005394
PD673   PD        0.466531    0.354158    0.268562     0.005394
PD674   PD        0.499854    0.322693    0.257119     0.005394
PD675   PD        0.505486    0.353269    0.232965     0.005394
PD676   PD        0.541822    0.315791    0.229589     0.005394
PD677   PD        0.542554    0.352336    0.269676     0.005394
PD678   PD        0.579591    0.312039    0.266885     0.005394
PD679   PD        0.579112    0.353662    0.230396     0.005394
PD680   PD        0.614204    0.318671    0.232998     0.005394
PD681   PD        0.616335    0.353136    0.267106     0.005394
PD682   PD        0.662297    0.319579    0.263997     0.005394
PD683   PD        0.652945    0.351969    0.232666     0.005394
PD684   PD        0.689819    0.320499    0.234103     0.005394
PD685   PD        0.688173    0.355999    0.272652     0.005394
NI686   NI        0.707307    0.299258    0.278851     0.004307
NI687   NI        0.742663    0.344283    0.232013     0.004307
PD688   PD        0.764393    0.318672    0.230758     0.005394
PD689   PD        0.764038    0.357578    0.268037     0.005394
PD690   PD        0.801192    0.318787    0.267925     0.005394
NI691   NI        0.813895    0.335787    0.216995     0.004307
NI692   NI        0.819398    0.365913    0.258528     0.004307
NI693   NI        0.061821    0.389400    0.266472     0.004307
NI694   NI        0.098250    0.394067    0.232133     0.004307
NI695   NI        0.072979    0.439667    0.280424     0.004307
NI696   NI        0.132561    0.373972    0.265506     0.004307
NI697   NI        0.138810    0.446132    0.227967     0.004307
NI698   NI        0.165257    0.380038    0.257336     0.004307
PD699   PD        0.172469    0.429438    0.270960     0.005394
NI700   NI        0.175535    0.379883    0.239904     0.004307
NI701   NI        0.187411    0.430570    0.222511     0.004307
NI702   NI        0.250141    0.385866    0.242844     0.004307
PD703   PD        0.243997    0.426707    0.276122     0.005394
PD704   PD        0.266562    0.384075    0.268577     0.005394
PD705   PD        0.281386    0.426010    0.229425     0.005394
PD706   PD        0.304475    0.393301    0.225065     0.005394
PD707   PD        0.306579    0.438042    0.263669     0.005394
PD708   PD        0.338616    0.396369    0.259029     0.005394
PD709   PD        0.354543    0.439572    0.243033     0.005394
PD710   PD        0.395817    0.390103    0.230837     0.005394
PD711   PD        0.394357    0.424639    0.268441     0.005394
PD712   PD        0.430830    0.387536    0.269766     0.005394
PD713   PD        0.430922    0.425027    0.232773     0.005394
PD714   PD        0.467201    0.388715    0.231688     0.005394
PD715   PD        0.480656    0.409742    0.265472     0.005394
PD716   PD        0.504082    0.389842    0.268279     0.005394
PD717   PD        0.493979    0.431115    0.221071     0.005394
PD718   PD        0.540778    0.411563    0.233663     0.005394
PD719   PD        0.541936    0.440102    0.275449     0.005394
PD720   PD        0.577993    0.391807    0.265907     0.005394
PD721   PD        0.577582    0.425580    0.230566     0.005394
PD722   PD        0.617618    0.397010    0.245980     0.005394
PD723   PD        0.615393    0.426771    0.267958     0.005394
PD724   PD        0.669614    0.387727    0.257100     0.005394
PD725   PD        0.652846    0.426530    0.229779     0.005394
NI726   NI        0.699411    0.369594    0.219540     0.004307
PD727   PD        0.703911    0.424674    0.253854     0.005394
NI728   NI        0.722014    0.386916    0.251517     0.004307
NI729   NI        0.730225    0.411903    0.213850     0.004307
PD730   PD        0.762569    0.392156    0.231676     0.005394
NI731   NI        0.792918    0.425956    0.235993     0.004307
PD732   PD        0.800876    0.391990    0.268313     0.005394
PD733   PD        0.799820    0.430610    0.230075     0.005394
NI734   NI        0.834767    0.390865    0.229779     0.004307
NI735   NI        0.841328    0.411418    0.243586     0.004307
NI736   NI        0.880443    0.373876    0.276365     0.004307
NI737   NI        0.059612    0.462977    0.269615     0.004307
NI738   NI        0.099059    0.469213    0.235752     0.004307
NI739   NI        0.096692    0.487358    0.267714     0.004307
NI740   NI        0.135036    0.465385    0.269426     0.004307
NI741   NI        0.135002    0.503986    0.236063     0.004307
NI742   NI        0.170603    0.468160    0.242914     0.004307
NI743   NI        0.164456    0.507737    0.256598     0.004307
PD744   PD        0.204154    0.467363    0.254584     0.005394
NI745   NI        0.207524    0.502573    0.224481     0.004307
PD746   PD        0.238819    0.474614    0.214893     0.005394
PD747   PD        0.244882    0.495104    0.276199     0.005394
PD748   PD        0.270023    0.473058    0.255681     0.005394
PD749   PD        0.256518    0.519575    0.234784     0.005394
PD750   PD        0.314680    0.481692    0.204590     0.005394
PD751   PD        0.300057    0.509699    0.267486     0.005394
PD752   PD        0.341497    0.470912    0.247201     0.005394
PD753   PD        0.347952    0.507284    0.228810     0.005394
PD754   PD        0.393878    0.462074    0.233502     0.005394
PD755   PD        0.403265    0.501458    0.283095     0.005394
PD756   PD        0.430278    0.461204    0.268908     0.005394
PD757   PD        0.428570    0.496678    0.238313     0.005394
PD758   PD        0.467859    0.463877    0.232763     0.005394
PD759   PD        0.466641    0.499633    0.270546     0.005394
PD760   PD        0.503186    0.467176    0.265071     0.005394
PD761   PD        0.513280    0.504641    0.214053     0.005394
PD762   PD        0.540206    0.462895    0.229289     0.005394
PD763   PD        0.542026    0.497744    0.266652     0.005394
PD764   PD        0.578568    0.462393    0.265744     0.005394
PD765   PD        0.575586    0.509690    0.229703     0.005394
PD766   PD        0.616218    0.461842    0.229257     0.005394
PD767   PD        0.613432    0.499436    0.265408     0.005394
PD768   PD        0.652604    0.464783    0.266610     0.005394
PD769   PD        0.648527    0.498493    0.226474     0.005394
PD770   PD        0.687493    0.464770    0.232023     0.005394
PD771   PD        0.687887    0.503749    0.266002     0.005394
PD772   PD        0.724945    0.467474    0.266768     0.005394
NI773   NI        0.725296    0.489093    0.257444     0.004307
PD774   PD        0.763408    0.466558    0.230540     0.005394
PD775   PD        0.763169    0.504093    0.266123     0.005394
PD776   PD        0.800124    0.465541    0.268891     0.005394
PD777   PD        0.801751    0.502050    0.229648     0.005394
NI778   NI        0.835202    0.463888    0.231378     0.004307
NI779   NI        0.853501    0.492405    0.228169     0.004307
NI780   NI        0.875526    0.465502    0.266597     0.004307
NI781   NI        0.033842    0.525754    0.258501     0.004307
NI782   NI        0.071262    0.539291    0.227867     0.004307
NI783   NI        0.093101    0.572854    0.253390     0.004307
NI784   NI        0.123871    0.538135    0.274882     0.004307
NI785   NI        0.105416    0.557085    0.218249     0.004307
NI786   NI        0.168897    0.532224    0.243624     0.004307
NI787   NI        0.143908    0.587478    0.276819     0.004307
NI788   NI        0.206409    0.559378    0.266745     0.004307
NI789   NI        0.234124    0.563442    0.218093     0.004307
PD790   PD        0.229086    0.549498    0.228640     0.005394
NI791   NI        0.214088    0.578628    0.278124     0.004307
PD792   PD        0.275419    0.536914    0.266120     0.005394
NI793   NI        0.269885    0.580755    0.214157     0.004307
PD794   PD        0.325732    0.553285    0.214978     0.005394
PD795   PD        0.306655    0.579063    0.264406     0.005394
PD796   PD        0.344875    0.544496    0.262425     0.005394
PD797   PD        0.346366    0.589735    0.235610     0.005394
PD798   PD        0.375528    0.550195    0.219146     0.005394
PD799   PD        0.389170    0.569552    0.273065     0.005394
PD800   PD        0.433949    0.549767    0.261773     0.005394
PD801   PD        0.419818    0.583004    0.226008     0.005394
PD802   PD        0.480800    0.543170    0.218565     0.005394
PD803   PD        0.473005    0.585709    0.262370     0.005394
PD804   PD        0.498353    0.536330    0.263375     0.005394
PD805   PD        0.509189    0.588939    0.227122     0.005394
PD806   PD        0.544421    0.550387    0.227149     0.005394
PD807   PD        0.546439    0.586636    0.263640     0.005394
PD808   PD        0.576074    0.535119    0.265890     0.005394
PD809   PD        0.594885    0.575002    0.201742     0.005394
PD810   PD        0.603705    0.553571    0.224648     0.005394
PD811   PD        0.613078    0.571549    0.263541     0.005394
PD812   PD        0.654045    0.539054    0.259233     0.005394
PD813   PD        0.664085    0.588631    0.240838     0.005394
PD814   PD        0.677529    0.547274    0.213764     0.005394
PD815   PD        0.701155    0.560130    0.255389     0.005394
NI816   NI        0.741158    0.534243    0.237638     0.004307
PD817   PD        0.725577    0.577069    0.229930     0.005394
PD818   PD        0.762181    0.538896    0.229407     0.005394
NI819   NI        0.764723    0.579169    0.267412     0.004307
NI820   NI        0.789955    0.551139    0.244903     0.004307
NI821   NI        0.822151    0.576566    0.221959     0.004307
NI822   NI        0.838564    0.538812    0.227758     0.004307
NI823   NI        0.836807    0.576448    0.265595     0.004307
NI824   NI        0.892841    0.526929    0.276259     0.004307
NI825   NI        0.063053    0.682363    0.268856     0.004307
NI826   NI        0.148098    0.615169    0.274676     0.004307
NI827   NI        0.134743    0.646888    0.236169     0.004307
NI828   NI        0.170398    0.617459    0.208001     0.004307
NI829   NI        0.175278    0.652249    0.248161     0.004307
NI830   NI        0.188189    0.643658    0.262224     0.004307
NI831   NI        0.213241    0.675194    0.233644     0.004307
NI832   NI        0.237391    0.620432    0.220144     0.004307
PD833   PD        0.244972    0.651236    0.271151     0.005394
PD834   PD        0.286822    0.623284    0.266062     0.005394
NI835   NI        0.301227    0.660170    0.201760     0.004307
PD836   PD        0.321969    0.622753    0.230773     0.005394
PD837   PD        0.304710    0.647742    0.263737     0.005394
PD838   PD        0.351301    0.634649    0.247464     0.005394
NI839   NI        0.352405    0.667176    0.212178     0.004307
PD840   PD        0.397910    0.625934    0.228073     0.005394
PD841   PD        0.394861    0.659950    0.265192     0.005394
PD842   PD        0.430583    0.599214    0.272205     0.005394
PD843   PD        0.434019    0.660380    0.226315     0.005394
PD844   PD        0.463940    0.611399    0.242001     0.005394
PD845   PD        0.470273    0.660752    0.261758     0.005394
PD846   PD        0.508716    0.624726    0.263552     0.005394
PD847   PD        0.502760    0.646918    0.241143     0.005394
PD848   PD        0.535792    0.609522    0.234445     0.005394
PD849   PD        0.548815    0.665472    0.274587     0.005394
PD850   PD        0.587702    0.635533    0.271490     0.005394
PD851   PD        0.583995    0.660579    0.228045     0.005394
PD852   PD        0.609920    0.611665    0.233467     0.005394
PD853   PD        0.619077    0.661882    0.266707     0.005394
PD854   PD        0.669276    0.608532    0.243456     0.005394
NI855   NI        0.655791    0.664359    0.230200     0.004307
NI856   NI        0.691716    0.624628    0.226571     0.004307
PD857   PD        0.721768    0.684383    0.274732     0.005394
NI858   NI        0.739137    0.592244    0.263800     0.004307
NI859   NI        0.721793    0.649524    0.235068     0.004307
NI860   NI        0.766277    0.617241    0.230659     0.004307
NI861   NI        0.758147    0.648433    0.274785     0.004307
NI862   NI        0.798948    0.618830    0.287179     0.004307
NI863   NI        0.801517    0.669475    0.204402     0.004307
NI864   NI        0.861339    0.658634    0.290316     0.004307
NI865   NI        0.113753    0.689546    0.278714     0.004307
NI866   NI        0.173237    0.691295    0.230532     0.004307
NI867   NI        0.153534    0.739562    0.264658     0.004307
NI868   NI        0.208825    0.687353    0.267402     0.004307
NI869   NI        0.175429    0.733540    0.207309     0.004307
NI870   NI        0.245040    0.700802    0.227767     0.004307
NI871   NI        0.251596    0.752672    0.251433     0.004307
PD872   PD        0.282926    0.693152    0.267123     0.005394
NI873   NI        0.267264    0.742083    0.208663     0.004307
NI874   NI        0.329043    0.703972    0.208012     0.004307
NI875   NI        0.301501    0.738538    0.247635     0.004307
PD876   PD        0.368540    0.705654    0.262298     0.005394
NI877   NI        0.339006    0.744255    0.241150     0.004307
PD878   PD        0.395433    0.694758    0.224847     0.005394
NI879   NI        0.394436    0.732236    0.260344     0.004307
PD880   PD        0.421745    0.679015    0.270913     0.005394
NI881   NI        0.425424    0.737532    0.219082     0.004307
PD882   PD        0.465494    0.699825    0.230536     0.005394
PD883   PD        0.468243    0.733437    0.269279     0.005394
PD884   PD        0.506950    0.697514    0.267043     0.005394
NI885   NI        0.501297    0.737961    0.216790     0.004307
PD886   PD        0.552957    0.700574    0.236013     0.005394
PD887   PD        0.541367    0.737624    0.269557     0.005394
PD888   PD        0.596301    0.686329    0.264079     0.005394
PD889   PD        0.579937    0.736532    0.233605     0.005394
NI890   NI        0.625524    0.684284    0.235704     0.004307
NI891   NI        0.628109    0.742317    0.264420     0.004307
PD892   PD        0.654685    0.698606    0.268813     0.005394
NI893   NI        0.657132    0.736175    0.233598     0.004307
NI894   NI        0.686565    0.681990    0.213160     0.004307
NI895   NI        0.690803    0.727814    0.272323     0.004307
NI896   NI        0.709988    0.702846    0.253727     0.004307
NI897   NI        0.718499    0.717667    0.235148     0.004307
NI898   NI        0.763379    0.691049    0.231335     0.004307
NI899   NI        0.761748    0.753086    0.281790     0.004307
NI900   NI        0.790829    0.713580    0.266894     0.004307
NI901   NI        0.200856    0.758101    0.261169     0.004307
NI902   NI        0.219064    0.773697    0.216621     0.004307
NI903   NI        0.220117    0.776460    0.284757     0.004307
NI904   NI        0.268386    0.757280    0.282274     0.004307
NI905   NI        0.258380    0.825816    0.228518     0.004307
NI906   NI        0.330485    0.778581    0.231505     0.004307
NI907   NI        0.318559    0.806829    0.272851     0.004307
NI908   NI        0.374522    0.758080    0.267502     0.004307
NI909   NI        0.347812    0.817638    0.246939     0.004307
NI910   NI        0.388466    0.762272    0.246879     0.004307
NI911   NI        0.391804    0.808274    0.271391     0.004307
NI912   NI        0.432040    0.768648    0.259799     0.004307
NI913   NI        0.451619    0.815924    0.207260     0.004307
NI914   NI        0.469783    0.768098    0.222353     0.004307
NI915   NI        0.464811    0.806851    0.258490     0.004307
PD916   PD        0.501795    0.768185    0.257902     0.005394
NI917   NI        0.508107    0.811817    0.236381     0.004307
NI918   NI        0.535378    0.754066    0.221484     0.004307
NI919   NI        0.510781    0.795102    0.241518     0.004307
NI920   NI        0.580682    0.769754    0.272511     0.004307
NI921   NI        0.572418    0.788731    0.232163     0.004307
NI922   NI        0.616032    0.764881    0.235420     0.004307
PD923   PD        0.618890    0.804668    0.274217     0.005394
NI924   NI        0.658399    0.771083    0.278153     0.004307
NI925   NI        0.676762    0.808661    0.225491     0.004307
NI926   NI        0.686551    0.758962    0.235624     0.004307
NI927   NI        0.691392    0.807425    0.274010     0.004307
NI928   NI        0.725763    0.774808    0.258072     0.004307
NI929   NI        0.281210    0.839105    0.272610     0.004307
NI930   NI        0.355288    0.843582    0.270774     0.004307
NI931   NI        0.368016    0.856282    0.218378     0.004307
NI932   NI        0.379418    0.888842    0.255484     0.004307
NI933   NI        0.429751    0.845713    0.270120     0.004307
NI934   NI        0.465524    0.833554    0.235232     0.004307
NI935   NI        0.468027    0.874491    0.271157     0.004307
NI936   NI        0.520214    0.854525    0.263810     0.004307
NI937   NI        0.538909    0.817757    0.233583     0.004307
NI938   NI        0.544525    0.906261    0.232516     0.004307
NI939   NI        0.582314    0.841385    0.272875     0.004307
NI940   NI        0.680059    0.818391    0.274128     0.004307
NI941   NI        0.310797    0.051071    0.333317     0.004307
NI942   NI        0.354635    0.059294    0.307658     0.004307
NI943   NI        0.395265    0.023863    0.312454     0.004307
NI944   NI        0.431004    0.058881    0.307773     0.004307
NI945   NI        0.474463    0.024732    0.363769     0.004307
NI946   NI        0.491007    0.037785    0.296710     0.004307
NI947   NI        0.550036    0.035866    0.345900     0.004307
NI948   NI        0.617462    0.053634    0.292559     0.004307
NI949   NI        0.615896    0.059702    0.344781     0.004307
NI950   NI        0.206331    0.134310    0.308281     0.004307
NI951   NI        0.227392    0.132765    0.323389     0.004307
NI952   NI        0.272329    0.100364    0.361413     0.004307
NI953   NI        0.269319    0.131302    0.291355     0.004307
NI954   NI        0.329031    0.074628    0.284803     0.004307
NI955   NI        0.313889    0.126949    0.349407     0.004307
NI956   NI        0.357138    0.097243    0.346395     0.004307
NI957   NI        0.364354    0.109569    0.296468     0.004307
NI958   NI        0.393142    0.087300    0.315796     0.004307
PD959   PD        0.387936    0.129575    0.344169     0.005394
PD960   PD        0.429965    0.101149    0.350358     0.005394
PD961   PD        0.422850    0.131677    0.308767     0.005394
NI962   NI        0.466024    0.102779    0.311217     0.004307
NI963   NI        0.469818    0.127283    0.331298     0.004307
NI964   NI        0.502610    0.102426    0.348779     0.004307
NI965   NI        0.533292    0.116681    0.298659     0.004307
NI966   NI        0.533471    0.067773    0.284697     0.004307
PD967   PD        0.541308    0.134951    0.343004     0.005394
PD968   PD        0.578172    0.098761    0.345942     0.005394
PD969   PD        0.578078    0.133539    0.306901     0.005394
NI970   NI        0.611220    0.100878    0.316456     0.004307
PD971   PD        0.614671    0.135555    0.341445     0.005394
NI972   NI        0.651184    0.100814    0.345630     0.004307
NI973   NI        0.652874    0.132976    0.305676     0.004307
NI974   NI        0.693000    0.130865    0.337632     0.004307
NI975   NI        0.740656    0.119826    0.289312     0.004307
NI976   NI        0.137846    0.206022    0.306009     0.004307
NI977   NI        0.186216    0.161232    0.306645     0.004307
NI978   NI        0.157260    0.206560    0.312685     0.004307
NI979   NI        0.188103    0.179678    0.355059     0.004307
NI980   NI        0.211194    0.176670    0.321002     0.004307
NI981   NI        0.219700    0.157561    0.274828     0.004307
PD982   PD        0.247337    0.205982    0.344133     0.005394
NI983   NI        0.291308    0.154227    0.331949     0.004307
NI984   NI        0.273284    0.197498    0.309963     0.004307
NI985   NI        0.336234    0.159547    0.307060     0.004307
PD986   PD        0.317618    0.202543    0.346298     0.005394
NI987   NI        0.340573    0.157544    0.338790     0.004307
PD988   PD        0.351733    0.206840    0.307288     0.005394
PD989   PD        0.386909    0.166327    0.305877     0.005394
PD990   PD        0.392131    0.208684    0.346709     0.005394
NI991   NI        0.424807    0.151464    0.331208     0.004307
PD992   PD        0.426813    0.204061    0.307175     0.005394
PD993   PD        0.466407    0.170280    0.307870     0.005394
PD994   PD        0.465681    0.206148    0.341433     0.005394
PD995   PD        0.499898    0.168042    0.339014     0.005394
PD996   PD        0.504040    0.205285    0.304761     0.005394
PD997   PD        0.543509    0.170928    0.306098     0.005394
PD998   PD        0.551246    0.214743    0.329139     0.005394
PD999   PD        0.577910    0.171472    0.343182     0.005394
NI1000   NI        0.568153    0.179984    0.293763     0.004307
PD1001   PD        0.620533    0.170161    0.301759     0.005394
PD1002   PD        0.621786    0.205838    0.338301     0.005394
NI1003   NI        0.655995    0.165291    0.337259     0.004307
PD1004   PD        0.656442    0.206901    0.308758     0.005394
NI1005   NI        0.690250    0.170831    0.302988     0.004307
PD1006   PD        0.689192    0.211718    0.345766     0.005394
NI1007   NI        0.760197    0.158896    0.337931     0.004307
NI1008   NI        0.738875    0.224048    0.300304     0.004307
NI1009   NI        0.770741    0.170436    0.289784     0.004307
PD1010   PD        0.762039    0.208703    0.344692     0.005394
NI1011   NI        0.800122    0.208895    0.309013     0.004307
NI1012   NI        0.097085    0.279291    0.343803     0.004307
NI1013   NI        0.134089    0.243983    0.342158     0.004307
NI1014   NI        0.137536    0.290555    0.306002     0.004307
NI1015   NI        0.171655    0.244455    0.308647     0.004307
PD1016   PD        0.170376    0.280438    0.344224     0.005394
NI1017   NI        0.194649    0.232787    0.340023     0.004307
NI1018   NI        0.190835    0.291330    0.301076     0.004307
NI1019   NI        0.236375    0.232459    0.306596     0.004307
NI1020   NI        0.238140    0.281996    0.325715     0.004307
PD1021   PD        0.284161    0.244137    0.344682     0.005394
NI1022   NI        0.256515    0.280170    0.297058     0.004307
NI1023   NI        0.319500    0.245011    0.282601     0.004307
PD1024   PD        0.334746    0.243950    0.335598     0.005394
PD1025   PD        0.352840    0.240751    0.343297     0.005394
NI1026   NI        0.344351    0.267648    0.277255     0.004307
NI1027   NI        0.375889    0.238027    0.305138     0.004307
PD1028   PD        0.397112    0.283419    0.318593     0.005394
PD1029   PD        0.429756    0.244226    0.343685     0.005394
PD1030   PD        0.445404    0.273021    0.302645     0.005394
PD1031   PD        0.466504    0.243081    0.303246     0.005394
PD1032   PD        0.466257    0.278421    0.343486     0.005394
PD1033   PD        0.499668    0.241036    0.342465     0.005394
PD1034   PD        0.504553    0.278543    0.304496     0.005394
PD1035   PD        0.535018    0.249300    0.304055     0.005394
PD1036   PD        0.551876    0.286218    0.333483     0.005394
PD1037   PD        0.577113    0.242068    0.341702     0.005394
PD1038   PD        0.579139    0.279307    0.304247     0.005394
PD1039   PD        0.631880    0.246575    0.304475     0.005394
PD1040   PD        0.614641    0.280114    0.341079     0.005394
NI1041   NI        0.635486    0.232522    0.355168     0.004307
PD1042   PD        0.653029    0.283118    0.305049     0.005394
PD1043   PD        0.689738    0.245230    0.304880     0.005394
NI1044   NI        0.709567    0.290489    0.320995     0.004307
PD1045   PD        0.725833    0.246772    0.344270     0.005394
NI1046   NI        0.742944    0.274400    0.286599     0.004307
PD1047   PD        0.765566    0.247077    0.307171     0.005394
NI1048   NI        0.770444    0.277764    0.336101     0.004307
NI1049   NI        0.819908    0.228236    0.337269     0.004307
PD1050   PD        0.800184    0.282615    0.306201     0.005394
NI1051   NI        0.851007    0.267631    0.349893     0.004307
NI1052   NI        0.061061    0.318646    0.342192     0.004307
NI1053   NI        0.063251    0.351469    0.303278     0.004307
NI1054   NI        0.078804    0.320441    0.321460     0.004307
NI1055   NI        0.072910    0.328591    0.319377     0.004307
NI1056   NI        0.107138    0.329341    0.355004     0.004307
NI1057   NI        0.118341    0.338442    0.294259     0.004307
NI1058   NI        0.157394    0.294589    0.286967     0.004307
NI1059   NI        0.157645    0.364538    0.323280     0.004307
PD1060   PD        0.209286    0.315777    0.344036     0.005394
NI1061   NI        0.209693    0.366277    0.313998     0.004307
PD1062   PD        0.247318    0.314080    0.307703     0.005394
PD1063   PD        0.244134    0.352852    0.343837     0.005394
PD1064   PD        0.269249    0.309537    0.351014     0.005394
PD1065   PD        0.284132    0.354457    0.306740     0.005394
PD1066   PD        0.333730    0.328424    0.291041     0.005394
PD1067   PD        0.322718    0.360560    0.350540     0.005394
PD1068   PD        0.357208    0.314529    0.343259     0.005394
PD1069   PD        0.338909    0.343708    0.305722     0.005394
PD1070   PD        0.385453    0.326967    0.293758     0.005394
PD1071   PD        0.393317    0.350939    0.343093     0.005394
PD1072   PD        0.431384    0.313921    0.345098     0.005394
PD1073   PD        0.429375    0.348860    0.302222     0.005394
PD1074   PD        0.467688    0.315427    0.306901     0.005394
PD1075   PD        0.461207    0.358926    0.332101     0.005394
PD1076   PD        0.506327    0.312270    0.341570     0.005394
PD1077   PD        0.503680    0.352907    0.306306     0.005394
PD1078   PD        0.542040    0.316348    0.305189     0.005394
PD1079   PD        0.539136    0.330960    0.336959     0.005394
PD1080   PD        0.587340    0.323978    0.353872     0.005394
PD1081   PD        0.566987    0.366452    0.310541     0.005394
PD1082   PD        0.615693    0.316787    0.306475     0.005394
PD1083   PD        0.613750    0.358710    0.330030     0.005394
PD1084   PD        0.652715    0.298539    0.349934     0.005394
PD1085   PD        0.653610    0.355600    0.304737     0.005394
PD1086   PD        0.701370    0.339524    0.293836     0.005394
PD1087   PD        0.699919    0.337545    0.323352     0.005394
PD1088   PD        0.725023    0.320247    0.345322     0.005394
NI1089   NI        0.735228    0.364080    0.294645     0.004307
NI1090   NI        0.774623    0.309434    0.294923     0.004307
PD1091   PD        0.763902    0.356452    0.343045     0.005394
PD1092   PD        0.801163    0.318267    0.341058     0.005394
NI1093   NI        0.787525    0.365579    0.299195     0.004307
PD1094   PD        0.838665    0.317513    0.305955     0.005394
PD1095   PD        0.836169    0.356470    0.342444     0.005394
NI1096   NI        0.887569    0.300451    0.327715     0.004307
NI1097   NI        0.872756    0.355378    0.302465     0.004307
NI1098   NI        0.042478    0.385747    0.336716     0.004307
NI1099   NI        0.060439    0.424658    0.305934     0.004307
NI1100   NI        0.098657    0.389711    0.305529     0.004307
NI1101   NI        0.070759    0.427843    0.348058     0.004307
PD1102   PD        0.131316    0.389418    0.343806     0.005394
NI1103   NI        0.110659    0.426954    0.313245     0.004307
NI1104   NI        0.162971    0.402359    0.303851     0.004307
PD1105   PD        0.167946    0.427389    0.344782     0.005394
PD1106   PD        0.204433    0.394037    0.352314     0.005394
PD1107   PD        0.209716    0.415949    0.305905     0.005394
PD1108   PD        0.244728    0.406480    0.291907     0.005394
PD1109   PD        0.239609    0.428417    0.361303     0.005394
PD1110   PD        0.287392    0.365976    0.337513     0.005394
PD1111   PD        0.279763    0.430556    0.316106     0.005394
PD1112   PD        0.320727    0.389364    0.306824     0.005394
PD1113   PD        0.329733    0.424584    0.324426     0.005394
PD1114   PD        0.357891    0.392310    0.345010     0.005394
PD1115   PD        0.379007    0.422240    0.312112     0.005394
PD1116   PD        0.397332    0.388579    0.308945     0.005394
PD1117   PD        0.377476    0.432944    0.317210     0.005394
PD1118   PD        0.424217    0.424543    0.333627     0.005394
PD1119   PD        0.426371    0.431979    0.300026     0.005394
PD1120   PD        0.467351    0.386653    0.307932     0.005394
PD1121   PD        0.472288    0.421042    0.352811     0.005394
PD1122   PD        0.504844    0.388584    0.340891     0.005394
PD1123   PD        0.504441    0.426296    0.306159     0.005394
PD1124   PD        0.542868    0.386157    0.304017     0.005394
PD1125   PD        0.543381    0.423080    0.341227     0.005394
PD1126   PD        0.578969    0.412645    0.353162     0.005394
PD1127   PD        0.578361    0.426401    0.305048     0.005394
PD1128   PD        0.634960    0.389372    0.295460     0.005394
PD1129   PD        0.620318    0.431760    0.335172     0.005394
PD1130   PD        0.650753    0.388416    0.344481     0.005394
PD1131   PD        0.649698    0.428820    0.306670     0.005394
PD1132   PD        0.687917    0.392924    0.305972     0.005394
PD1133   PD        0.712167    0.426794    0.327694     0.005394
PD1134   PD        0.722346    0.380519    0.342999     0.005394
PD1135   PD        0.727307    0.433650    0.307085     0.005394
NI1136   NI        0.769703    0.382363    0.328277     0.004307
PD1137   PD        0.760987    0.431130    0.342306     0.005394
PD1138   PD        0.799665    0.391575    0.342076     0.005394
PD1139   PD        0.798831    0.429383    0.303609     0.005394
NI1140   NI        0.841895    0.401030    0.295548     0.004307
PD1141   PD        0.836662    0.430266    0.338612     0.005394
NI1142   NI        0.882250    0.352410    0.337354     0.004307
NI1143   NI        0.873396    0.428893    0.304828     0.004307
NI1144   NI        0.066843    0.455426    0.326810     0.004307
NI1145   NI        0.086035    0.503493    0.284548     0.004307
NI1146   NI        0.090990    0.459675    0.310210     0.004307
NI1147   NI        0.090469    0.496829    0.342199     0.004307
PD1148   PD        0.129088    0.460790    0.343457     0.005394
PD1149   PD        0.134850    0.501255    0.300594     0.005394
NI1150   NI        0.175303    0.450553    0.296523     0.004307
PD1151   PD        0.164686    0.497569    0.344168     0.005394
PD1152   PD        0.202117    0.461428    0.348875     0.005394
PD1153   PD        0.201445    0.501800    0.304377     0.005394
PD1154   PD        0.224903    0.488125    0.311669     0.005394
PD1155   PD        0.237933    0.499038    0.338932     0.005394
PD1156   PD        0.291149    0.455644    0.308670     0.005394
PD1157   PD        0.268508    0.518548    0.310457     0.005394
PD1158   PD        0.299320    0.476576    0.300092     0.005394
PD1159   PD        0.310819    0.503351    0.337257     0.005394
PD1160   PD        0.351929    0.468554    0.337724     0.005394
PD1161   PD        0.343876    0.504589    0.297097     0.005394
PD1162   PD        0.388716    0.465272    0.301504     0.005394
PD1163   PD        0.388602    0.502656    0.336804     0.005394
PD1164   PD        0.429677    0.465679    0.339354     0.005394
PD1165   PD        0.430944    0.495147    0.309540     0.005394
PD1166   PD        0.466819    0.461961    0.306034     0.005394
PD1167   PD        0.468787    0.498876    0.344170     0.005394
PD1168   PD        0.498274    0.482010    0.340625     0.005394
PD1169   PD        0.509483    0.510810    0.296895     0.005394
PD1170   PD        0.538009    0.451464    0.277012     0.005394
PD1171   PD        0.544988    0.509529    0.334938     0.005394
PD1172   PD        0.584957    0.473874    0.331966     0.005394
PD1173   PD        0.604682    0.511633    0.302625     0.005394
PD1174   PD        0.641854    0.480926    0.302897     0.005394
PD1175   PD        0.634911    0.513480    0.344059     0.005394
PD1176   PD        0.652924    0.469593    0.335246     0.005394
PD1177   PD        0.653083    0.502958    0.304736     0.005394
PD1178   PD        0.689723    0.466326    0.302128     0.005394
PD1179   PD        0.688800    0.505681    0.336489     0.005394
PD1180   PD        0.726421    0.465934    0.342311     0.005394
PD1181   PD        0.726971    0.505017    0.303824     0.005394
PD1182   PD        0.761518    0.467205    0.304608     0.005394
NI1183   NI        0.758568    0.523102    0.357985     0.004307
PD1184   PD        0.800407    0.467179    0.340167     0.005394
PD1185   PD        0.800999    0.502283    0.304216     0.005394
PD1186   PD        0.837308    0.466730    0.303835     0.005394
PD1187   PD        0.839515    0.503483    0.340112     0.005394
PD1188   PD        0.874404    0.463394    0.338320     0.005394
NI1189   NI        0.875112    0.503894    0.302007     0.004307
NI1190   NI        0.062237    0.535234    0.343174     0.004307
NI1191   NI        0.059610    0.574978    0.310131     0.004307
NI1192   NI        0.096293    0.536542    0.305720     0.004307
NI1193   NI        0.106509    0.582395    0.357857     0.004307
NI1194   NI        0.134595    0.551400    0.339709     0.004307
NI1195   NI        0.129934    0.576262    0.309015     0.004307
PD1196   PD        0.166608    0.541191    0.295290     0.005394
NI1197   NI        0.174043    0.575219    0.333413     0.004307
PD1198   PD        0.200214    0.534926    0.343182     0.005394
NI1199   NI        0.189544    0.551039    0.287901     0.004307
PD1200   PD        0.237143    0.538252    0.302569     0.005394
PD1201   PD        0.246326    0.583437    0.348265     0.005394
PD1202   PD        0.283562    0.548826    0.347568     0.005394
PD1203   PD        0.275896    0.571002    0.304817     0.005394
PD1204   PD        0.310697    0.542456    0.302567     0.005394
PD1205   PD        0.321057    0.580104    0.339246     0.005394
PD1206   PD        0.371895    0.542902    0.335070     0.005394
PD1207   PD        0.363050    0.579825    0.298037     0.005394
PD1208   PD        0.385092    0.535122    0.296403     0.005394
PD1209   PD        0.374706    0.565391    0.354555     0.005394
PD1210   PD        0.418286    0.542092    0.334101     0.005394
PD1211   PD        0.405956    0.604002    0.310805     0.005394
PD1212   PD        0.473404    0.548058    0.296997     0.005394
PD1213   PD        0.472473    0.584189    0.333130     0.005394
PD1214   PD        0.507102    0.533303    0.343800     0.005394
PD1215   PD        0.498623    0.566497    0.304353     0.005394
PD1216   PD        0.546206    0.550337    0.301167     0.005394
PD1217   PD        0.546389    0.586509    0.336113     0.005394
PD1218   PD        0.583904    0.547468    0.337377     0.005394
PD1219   PD        0.580128    0.570235    0.303430     0.005394
PD1220   PD        0.614876    0.538467    0.298577     0.005394
PD1221   PD        0.619580    0.583767    0.338861     0.005394
PD1222   PD        0.671418    0.552089    0.344736     0.005394
PD1223   PD        0.651321    0.571796    0.298580     0.005394
PD1224   PD        0.692376    0.542350    0.303428     0.005394
PD1225   PD        0.686572    0.567721    0.337056     0.005394
PD1226   PD        0.728866    0.540831    0.341691     0.005394
PD1227   PD        0.726723    0.577837    0.304640     0.005394
NI1228   NI        0.780922    0.547752    0.298647     0.004307
PD1229   PD        0.765371    0.577282    0.340266     0.005394
PD1230   PD        0.802035    0.541757    0.338251     0.005394
PD1231   PD        0.799792    0.577884    0.305160     0.005394
PD1232   PD        0.838567    0.537959    0.301565     0.005394
PD1233   PD        0.842099    0.574274    0.338651     0.005394
NI1234   NI        0.876964    0.536700    0.338010     0.004307
NI1235   NI        0.887665    0.615231    0.301184     0.004307
NI1236   NI        0.030937    0.637266    0.342102     0.004307
NI1237   NI        0.094308    0.612548    0.315286     0.004307
NI1238   NI        0.084696    0.657517    0.354795     0.004307
NI1239   NI        0.123938    0.626841    0.340646     0.004307
NI1240   NI        0.124100    0.668413    0.321783     0.004307
NI1241   NI        0.171623    0.614979    0.308880     0.004307
NI1242   NI        0.170789    0.649762    0.337695     0.004307
PD1243   PD        0.202098    0.612802    0.350577     0.005394
NI1244   NI        0.209338    0.659807    0.306116     0.004307
PD1245   PD        0.246101    0.624413    0.315656     0.005394
NI1246   NI        0.221271    0.661456    0.343596     0.004307
PD1247   PD        0.291850    0.621191    0.350008     0.005394
PD1248   PD        0.284854    0.656567    0.304826     0.005394
PD1249   PD        0.320748    0.619849    0.305180     0.005394
NI1250   NI        0.306362    0.668583    0.342077     0.004307
PD1251   PD        0.361257    0.613149    0.335788     0.005394
PD1252   PD        0.359262    0.652328    0.298840     0.005394
PD1253   PD        0.395471    0.623106    0.301676     0.005394
PD1254   PD        0.375462    0.646639    0.325497     0.005394
PD1255   PD        0.434263    0.620050    0.336124     0.005394
PD1256   PD        0.430018    0.661640    0.307488     0.005394
PD1257   PD        0.472331    0.625126    0.299148     0.005394
PD1258   PD        0.469419    0.657787    0.340278     0.005394
PD1259   PD        0.505521    0.622614    0.335419     0.005394
PD1260   PD        0.502570    0.661277    0.303120     0.005394
PD1261   PD        0.545054    0.624206    0.300982     0.005394
PD1262   PD        0.537487    0.661306    0.340627     0.005394
PD1263   PD        0.584165    0.620391    0.343891     0.005394
PD1264   PD        0.581042    0.642889    0.323541     0.005394
PD1265   PD        0.632046    0.629957    0.325885     0.005394
PD1266   PD        0.621598    0.656370    0.346184     0.005394
PD1267   PD        0.674705    0.618556    0.351622     0.005394
PD1268   PD        0.652338    0.661257    0.291069     0.005394
PD1269   PD        0.682441    0.610691    0.309531     0.005394
PD1270   PD        0.690764    0.637603    0.350696     0.005394
PD1271   PD        0.718200    0.612942    0.348481     0.005394
PD1272   PD        0.719187    0.648416    0.310204     0.005394
PD1273   PD        0.753868    0.610582    0.309703     0.005394
PD1274   PD        0.765565    0.651217    0.339336     0.005394
PD1275   PD        0.804947    0.614806    0.338221     0.005394
NI1276   NI        0.815848    0.633733    0.289481     0.004307
NI1277   NI        0.839613    0.614071    0.301200     0.004307
NI1278   NI        0.841250    0.649255    0.338420     0.004307
NI1279   NI        0.904792    0.651397    0.333680     0.004307
NI1280   NI        0.098612    0.686267    0.307954     0.004307
NI1281   NI        0.118493    0.735662    0.304577     0.004307
NI1282   NI        0.162199    0.707266    0.293853     0.004307
NI1283   NI        0.143865    0.712759    0.343225     0.004307
NI1284   NI        0.191548    0.699365    0.335340     0.004307
NI1285   NI        0.190978    0.728028    0.293466     0.004307
NI1286   NI        0.233373    0.715084    0.319864     0.004307
NI1287   NI        0.214413    0.759189    0.333726     0.004307
PD1288   PD        0.267128    0.686849    0.339976     0.005394
NI1289   NI        0.281237    0.731810    0.290273     0.004307
PD1290   PD        0.322512    0.685545    0.293418     0.005394
PD1291   PD        0.324029    0.726634    0.334872     0.005394
PD1292   PD        0.353930    0.688002    0.348612     0.005394
PD1293   PD        0.359558    0.731974    0.308304     0.005394
PD1294   PD        0.389179    0.692426    0.308324     0.005394
PD1295   PD        0.390574    0.726686    0.349467     0.005394
PD1296   PD        0.430214    0.692771    0.349146     0.005394
PD1297   PD        0.441779    0.728946    0.311572     0.005394
PD1298   PD        0.467103    0.695284    0.300755     0.005394
PD1299   PD        0.451053    0.725660    0.320468     0.005394
PD1300   PD        0.502708    0.696656    0.339477     0.005394
PD1301   PD        0.502445    0.733469    0.306277     0.005394
PD1302   PD        0.540070    0.699337    0.303841     0.005394
PD1303   PD        0.543709    0.729824    0.343020     0.005394
PD1304   PD        0.578193    0.693642    0.337689     0.005394
NI1305   NI        0.577496    0.709985    0.306472     0.004307
PD1306   PD        0.613345    0.701313    0.300643     0.005394
NI1307   NI        0.619613    0.741069    0.314568     0.004307
PD1308   PD        0.654311    0.689147    0.334949     0.005394
PD1309   PD        0.654833    0.731296    0.307703     0.005394
PD1310   PD        0.692660    0.691837    0.302890     0.005394
PD1311   PD        0.690213    0.727412    0.342203     0.005394
NI1312   NI        0.741604    0.694671    0.320818     0.004307
NI1313   NI        0.726370    0.725865    0.308848     0.004307
NI1314   NI        0.767030    0.691298    0.304529     0.004307
NI1315   NI        0.775431    0.731579    0.373370     0.004307
NI1316   NI        0.805613    0.681334    0.320468     0.004307
NI1317   NI        0.800912    0.718153    0.317721     0.004307
NI1318   NI        0.149979    0.752152    0.272176     0.004307
NI1319   NI        0.212397    0.755562    0.348095     0.004307
NI1320   NI        0.209474    0.798727    0.305317     0.004307
NI1321   NI        0.247304    0.762897    0.310469     0.004307
NI1322   NI        0.240988    0.789579    0.337443     0.004307
PD1323   PD        0.285392    0.763851    0.345479     0.005394
NI1324   NI        0.282203    0.800556    0.308288     0.004307
PD1325   PD        0.321363    0.765909    0.307861     0.005394
NI1326   NI        0.323639    0.790622    0.345720     0.004307
PD1327   PD        0.354583    0.766501    0.348246     0.005394
NI1328   NI        0.357803    0.803002    0.308569     0.004307
NI1329   NI        0.394350    0.767416    0.298217     0.004307
PD1330   PD        0.392052    0.804184    0.344880     0.005394
PD1331   PD        0.426541    0.764425    0.344780     0.005394
NI1332   NI        0.441769    0.832744    0.294231     0.004307
NI1333   NI        0.469384    0.769150    0.296153     0.004307
NI1334   NI        0.451721    0.807451    0.339687     0.004307
PD1335   PD        0.516852    0.766015    0.343373     0.005394
NI1336   NI        0.505273    0.810752    0.290291     0.004307
NI1337   NI        0.532981    0.758779    0.295112     0.004307
PD1338   PD        0.542507    0.801578    0.346712     0.005394
NI1339   NI        0.589961    0.781040    0.336164     0.004307
PD1340   PD        0.580463    0.803519    0.310281     0.005394
PD1341   PD        0.617728    0.767844    0.308705     0.005394
NI1342   NI        0.598534    0.800478    0.339097     0.004307
PD1343   PD        0.655172    0.766526    0.345751     0.005394
NI1344   NI        0.639918    0.793814    0.318129     0.004307
NI1345   NI        0.702949    0.766444    0.305039     0.004307
NI1346   NI        0.688934    0.823515    0.323388     0.004307
NI1347   NI        0.727698    0.763289    0.345324     0.004307
NI1348   NI        0.724075    0.787622    0.307270     0.004307
NI1349   NI        0.765029    0.763962    0.284341     0.004307
NI1350   NI        0.301773    0.850531    0.318245     0.004307
NI1351   NI        0.352152    0.822817    0.310093     0.004307
NI1352   NI        0.318229    0.874638    0.346064     0.004307
NI1353   NI        0.348037    0.829629    0.336360     0.004307
NI1354   NI        0.346196    0.870228    0.291208     0.004307
NI1355   NI        0.393394    0.838500    0.306382     0.004307
NI1356   NI        0.369198    0.863896    0.337404     0.004307
NI1357   NI        0.417888    0.853445    0.320477     0.004307
NI1358   NI        0.419131    0.874501    0.285133     0.004307
NI1359   NI        0.465722    0.837252    0.306928     0.004307
NI1360   NI        0.469216    0.873746    0.340988     0.004307
NI1361   NI        0.522322    0.834928    0.349838     0.004307
NI1362   NI        0.505671    0.872826    0.307077     0.004307
NI1363   NI        0.555121    0.856758    0.314035     0.004307
NI1364   NI        0.542707    0.905731    0.323457     0.004307
NI1365   NI        0.578857    0.837550    0.346586     0.004307
NI1366   NI        0.576522    0.899939    0.290295     0.004307
NI1367   NI        0.618727    0.840037    0.311349     0.004307
NI1368   NI        0.637201    0.883939    0.333840     0.004307
NI1369   NI        0.660332    0.839522    0.335110     0.004307
NI1370   NI        0.305780    0.028495    0.377826     0.004307
NI1371   NI        0.315145    0.058430    0.419958     0.004307
NI1372   NI        0.378189    0.060941    0.388881     0.004307
NI1373   NI        0.376473    0.038681    0.428426     0.004307
NI1374   NI        0.454771    0.000769    0.403925     0.004307
NI1375   NI        0.440161    0.049367    0.390302     0.004307
NI1376   NI        0.468753    0.025866    0.377877     0.004307
NI1377   NI        0.464430    0.055848    0.415559     0.004307
NI1378   NI        0.502974    0.021519    0.414386     0.004307
NI1379   NI        0.504514    0.063724    0.383492     0.004307
NI1380   NI        0.540246    0.061483    0.417329     0.004307
NI1381   NI        0.577266    0.062791    0.382861     0.004307
NI1382   NI        0.614810    0.063621    0.417412     0.004307
NI1383   NI        0.652306    0.062982    0.380783     0.004307
NI1384   NI        0.167123    0.134323    0.421218     0.004307
NI1385   NI        0.204600    0.097369    0.418671     0.004307
NI1386   NI        0.213410    0.112627    0.410118     0.004307
NI1387   NI        0.254392    0.069660    0.399770     0.004307
NI1388   NI        0.243074    0.133293    0.418035     0.004307
NI1389   NI        0.287842    0.070257    0.400640     0.004307
NI1390   NI        0.283153    0.116817    0.392553     0.004307
NI1391   NI        0.318000    0.075544    0.360253     0.004307
NI1392   NI        0.301678    0.104228    0.404268     0.004307
PD1393   PD        0.351819    0.093303    0.419303     0.005394
PD1394   PD        0.353093    0.130733    0.382682     0.005394
PD1395   PD        0.390716    0.094426    0.383306     0.005394
NI1396   NI        0.415213    0.119944    0.398740     0.004307
NI1397   NI        0.449655    0.090365    0.425617     0.004307
PD1398   PD        0.426307    0.131444    0.379515     0.005394
NI1399   NI        0.468805    0.071222    0.365572     0.004307
NI1400   NI        0.443380    0.122602    0.394770     0.004307
PD1401   PD        0.500549    0.094395    0.415427     0.005394
NI1402   NI        0.505632    0.108823    0.411034     0.004307
NI1403   NI        0.539650    0.102668    0.382272     0.004307
NI1404   NI        0.525894    0.079175    0.406916     0.004307
NI1405   NI        0.568155    0.081789    0.416735     0.004307
PD1406   PD        0.577291    0.137946    0.377627     0.005394
NI1407   NI        0.604140    0.071246    0.366247     0.004307
PD1408   PD        0.612624    0.140152    0.418283     0.005394
NI1409   NI        0.658554    0.074282    0.388414     0.004307
PD1410   PD        0.651514    0.138134    0.382299     0.005394
NI1411   NI        0.688151    0.100762    0.378236     0.004307
PD1412   PD        0.688960    0.136203    0.419738     0.005394
NI1413   NI        0.724973    0.101522    0.417728     0.004307
NI1414   NI        0.721129    0.139664    0.381011     0.004307
NI1415   NI        0.774679    0.103835    0.434301     0.004307
NI1416   NI        0.103658    0.197036    0.435324     0.004307
NI1417   NI        0.132343    0.171615    0.419919     0.004307
NI1418   NI        0.128532    0.207171    0.383769     0.004307
NI1419   NI        0.188164    0.162582    0.388680     0.004307
PD1420   PD        0.171576    0.206305    0.416841     0.005394
NI1421   NI        0.186470    0.166656    0.442324     0.004307
NI1422   NI        0.206733    0.173650    0.342828     0.004307
PD1423   PD        0.244721    0.172136    0.379253     0.005394
PD1424   PD        0.242809    0.206295    0.419315     0.005394
PD1425   PD        0.281224    0.169846    0.420273     0.005394
PD1426   PD        0.278911    0.204638    0.383483     0.005394
PD1427   PD        0.315297    0.167426    0.381209     0.005394
PD1428   PD        0.315395    0.205942    0.418702     0.005394
PD1429   PD        0.352685    0.167941    0.420594     0.005394
PD1430   PD        0.367183    0.214638    0.365792     0.005394
PD1431   PD        0.388886    0.168242    0.381761     0.005394
PD1432   PD        0.391090    0.204677    0.417119     0.005394
PD1433   PD        0.427832    0.168021    0.414178     0.005394
PD1434   PD        0.430025    0.204649    0.379791     0.005394
PD1435   PD        0.464312    0.167301    0.380647     0.005394
PD1436   PD        0.472780    0.191231    0.406275     0.005394
PD1437   PD        0.500515    0.164695    0.415633     0.005394
PD1438   PD        0.502050    0.203750    0.377124     0.005394
PD1439   PD        0.537404    0.166851    0.379201     0.005394
PD1440   PD        0.548093    0.208662    0.403843     0.005394
PD1441   PD        0.572247    0.170273    0.417734     0.005394
PD1442   PD        0.593757    0.212212    0.380001     0.005394
PD1443   PD        0.622114    0.170791    0.374085     0.005394
PD1444   PD        0.630336    0.203828    0.413266     0.005394
NI1445   NI        0.655931    0.165347    0.411594     0.004307
NI1446   NI        0.662631    0.187610    0.366353     0.004307
NI1447   NI        0.721586    0.139222    0.381928     0.004307
PD1448   PD        0.690530    0.210871    0.417458     0.005394
PD1449   PD        0.726447    0.173508    0.419453     0.005394
NI1450   NI        0.757749    0.196745    0.410823     0.004307
NI1451   NI        0.762465    0.173654    0.380103     0.004307
PD1452   PD        0.761783    0.209987    0.417835     0.005394
NI1453   NI        0.800272    0.172895    0.418229     0.004307
PD1454   PD        0.800590    0.209795    0.381892     0.005394
NI1455   NI        0.836570    0.208194    0.414913     0.004307
NI1456   NI        0.048312    0.266473    0.382596     0.004307
NI1457   NI        0.094672    0.243335    0.381608     0.004307
NI1458   NI        0.096139    0.278921    0.418269     0.004307
NI1459   NI        0.121581    0.215356    0.410313     0.004307
NI1460   NI        0.117713    0.291249    0.389878     0.004307
NI1461   NI        0.151467    0.250355    0.380893     0.004307
PD1462   PD        0.172358    0.280960    0.414961     0.005394
PD1463   PD        0.208166    0.244354    0.418464     0.005394
PD1464   PD        0.208741    0.279595    0.381268     0.005394
PD1465   PD        0.244656    0.243080    0.381296     0.005394
NI1466   NI        0.225417    0.270990    0.410709     0.004307
PD1467   PD        0.281901    0.245055    0.416384     0.005394
PD1468   PD        0.277610    0.283112    0.362277     0.005394
PD1469   PD        0.334265    0.254561    0.384550     0.005394
PD1470   PD        0.319321    0.280571    0.417755     0.005394
PD1471   PD        0.352681    0.241718    0.418398     0.005394
PD1472   PD        0.350199    0.281993    0.366205     0.005394
PD1473   PD        0.403382    0.235119    0.387435     0.005394
PD1474   PD        0.379841    0.277394    0.391406     0.005394
PD1475   PD        0.441588    0.231601    0.415433     0.005394
PD1476   PD        0.430178    0.278574    0.382038     0.005394
PD1477   PD        0.473707    0.257103    0.384479     0.005394
PD1478   PD        0.469267    0.275341    0.415904     0.005394
PD1479   PD        0.507136    0.236821    0.416301     0.005394
PD1480   PD        0.511219    0.291897    0.362685     0.005394
PD1481   PD        0.538216    0.249228    0.377093     0.005394
PD1482   PD        0.533036    0.279091    0.418386     0.005394
PD1483   PD        0.562760    0.254819    0.384174     0.005394
PD1484   PD        0.579025    0.275592    0.377660     0.005394
PD1485   PD        0.617331    0.239936    0.375505     0.005394
PD1486   PD        0.598420    0.242964    0.417961     0.005394
PD1487   PD        0.650670    0.248813    0.418085     0.005394
PD1488   PD        0.651290    0.277087    0.380411     0.005394
PD1489   PD        0.680259    0.250430    0.378443     0.005394
PD1490   PD        0.688788    0.283548    0.418965     0.005394
NI1491   NI        0.735700    0.233946    0.424816     0.004307
NI1492   NI        0.749441    0.291964    0.378918     0.004307
NI1493   NI        0.770687    0.239519    0.376737     0.004307
NI1494   NI        0.768536    0.273047    0.420891     0.004307
NI1495   NI        0.817077    0.238287    0.401855     0.004307
PD1496   PD        0.798878    0.282147    0.380959     0.005394
NI1497   NI        0.836511    0.245240    0.381386     0.004307
PD1498   PD        0.836556    0.282467    0.418039     0.005394
NI1499   NI        0.885731    0.265680    0.363154     0.004307
NI1500   NI        0.062229    0.321530    0.416810     0.004307
NI1501   NI        0.069084    0.363736    0.402407     0.004307
NI1502   NI        0.083111    0.323853    0.368009     0.004307
NI1503   NI        0.112096    0.329840    0.406499     0.004307
NI1504   NI        0.123930    0.328241    0.399598     0.004307
NI1505   NI        0.120131    0.336944    0.402085     0.004307
PD1506   PD        0.171049    0.315774    0.380410     0.005394
PD1507   PD        0.171091    0.351463    0.417525     0.005394
PD1508   PD        0.208797    0.316924    0.416537     0.005394
PD1509   PD        0.207235    0.352150    0.380738     0.005394
PD1510   PD        0.243667    0.317039    0.379860     0.005394
PD1511   PD        0.243015    0.352930    0.416208     0.005394
PD1512   PD        0.281627    0.318690    0.415358     0.005394
PD1513   PD        0.280777    0.353876    0.377793     0.005394
PD1514   PD        0.319880    0.318765    0.381642     0.005394
PD1515   PD        0.305023    0.347430    0.439558     0.005394
PD1516   PD        0.356260    0.317496    0.417256     0.005394
PD1517   PD        0.357729    0.352881    0.380696     0.005394
PD1518   PD        0.401757    0.310586    0.390402     0.005394
PD1519   PD        0.389631    0.355709    0.407615     0.005394
PD1520   PD        0.425167    0.303458    0.412035     0.005394
PD1521   PD        0.436136    0.348097    0.383574     0.005394
PD1522   PD        0.475232    0.307002    0.396051     0.005394
PD1523   PD        0.463103    0.359397    0.403085     0.005394
PD1524   PD        0.512291    0.286844    0.426799     0.005394
PD1525   PD        0.505889    0.361373    0.353085     0.005394
PD1526   PD        0.530121    0.295207    0.380285     0.005394
PD1527   PD        0.537741    0.381759    0.420982     0.005394
PD1528   PD        0.576317    0.309383    0.415823     0.005394
PD1529   PD        0.589324    0.357435    0.373933     0.005394
PD1530   PD        0.614196    0.313855    0.380131     0.005394
PD1531   PD        0.626509    0.355698    0.405595     0.005394
PD1532   PD        0.650868    0.310432    0.418232     0.005394
PD1533   PD        0.660215    0.345378    0.369455     0.005394
PD1534   PD        0.689212    0.319447    0.381747     0.005394
PD1535   PD        0.695908    0.363150    0.409390     0.005394
PD1536   PD        0.725877    0.319657    0.418929     0.005394
NI1537   NI        0.729672    0.344836    0.380011     0.004307
NI1538   NI        0.772694    0.309347    0.364003     0.004307
PD1539   PD        0.765016    0.356349    0.417017     0.005394
NI1540   NI        0.793240    0.309187    0.430091     0.004307
PD1541   PD        0.836877    0.319135    0.380064     0.005394
NI1542   NI        0.863797    0.303919    0.366628     0.004307
NI1543   NI        0.866614    0.348903    0.388340     0.004307
PD1544   PD        0.874369    0.319578    0.416527     0.005394
PD1545   PD        0.872097    0.353766    0.378856     0.005394
NI1546   NI        0.020216    0.425433    0.417806     0.004307
NI1547   NI        0.058427    0.389054    0.418750     0.004307
NI1548   NI        0.057731    0.423909    0.380921     0.004307
NI1549   NI        0.094978    0.390880    0.379910     0.004307
NI1550   NI        0.091088    0.426427    0.420387     0.004307
NI1551   NI        0.109050    0.391270    0.421410     0.004307
PD1552   PD        0.130541    0.423870    0.382744     0.005394
NI1553   NI        0.153419    0.403721    0.362737     0.004307
PD1554   PD        0.179976    0.429768    0.430983     0.005394
PD1555   PD        0.207245    0.390024    0.417749     0.005394
NI1556   NI        0.185681    0.438735    0.363269     0.004307
PD1557   PD        0.241835    0.388488    0.378487     0.005394
PD1558   PD        0.243014    0.427174    0.414212     0.005394
PD1559   PD        0.269698    0.382324    0.430437     0.005394
PD1560   PD        0.285888    0.421888    0.383694     0.005394
PD1561   PD        0.318466    0.388118    0.359315     0.005394
PD1562   PD        0.315280    0.428843    0.411236     0.005394
PD1563   PD        0.364831    0.394128    0.396882     0.005394
PD1564   PD        0.350539    0.431086    0.373628     0.005394
PD1565   PD        0.384269    0.401966    0.356867     0.005394
PD1566   PD        0.390225    0.432183    0.413330     0.005394
PD1567   PD        0.429416    0.404475    0.420600     0.005394
PD1568   PD        0.424545    0.430834    0.372944     0.005394
PD1569   PD        0.465566    0.408783    0.384701     0.005394
PD1570   PD        0.466362    0.432118    0.401960     0.005394
PD1571   PD        0.518437    0.400661    0.428301     0.005394
PD1572   PD        0.502085    0.433608    0.358791     0.005394
PD1573   PD        0.533111    0.392895    0.369932     0.005394
PD1574   PD        0.540371    0.430202    0.401803     0.005394
PD1575   PD        0.578257    0.378583    0.392979     0.005394
PD1576   PD        0.581985    0.431578    0.371765     0.005394
PD1577   PD        0.617000    0.397228    0.377998     0.005394
PD1578   PD        0.617116    0.432535    0.415149     0.005394
PD1579   PD        0.657963    0.386215    0.431904     0.005394
PD1580   PD        0.654677    0.434223    0.376990     0.005394
PD1581   PD        0.701706    0.397440    0.355387     0.005394
PD1582   PD        0.688131    0.440037    0.412588     0.005394
PD1583   PD        0.725398    0.394593    0.417047     0.005394
PD1584   PD        0.713093    0.416990    0.378390     0.005394
PD1585   PD        0.760587    0.394349    0.378665     0.005394
PD1586   PD        0.767373    0.420463    0.410270     0.005394
PD1587   PD        0.801007    0.391992    0.414370     0.005394
PD1588   PD        0.800479    0.429649    0.377361     0.005394
PD1589   PD        0.837876    0.391365    0.378445     0.005394
PD1590   PD        0.837426    0.429848    0.414596     0.005394
PD1591   PD        0.874856    0.393008    0.416075     0.005394
PD1592   PD        0.874318    0.427245    0.378401     0.005394
NI1593   NI        0.909945    0.425248    0.414112     0.004307
NI1594   NI        0.034695    0.469789    0.381366     0.004307
NI1595   NI        0.019271    0.502101    0.419928     0.004307
NI1596   NI        0.056437    0.461459    0.417527     0.004307
NI1597   NI        0.070680    0.506055    0.386097     0.004307
PD1598   PD        0.091343    0.462025    0.381588     0.005394
PD1599   PD        0.092862    0.500399    0.418784     0.005394
NI1600   NI        0.123001    0.462371    0.396815     0.004307
PD1601   PD        0.127740    0.497603    0.380595     0.005394
PD1602   PD        0.166790    0.463351    0.382101     0.005394
PD1603   PD        0.178076    0.486569    0.388014     0.005394
PD1604   PD        0.204041    0.474991    0.430909     0.005394
PD1605   PD        0.186958    0.504487    0.392238     0.005394
PD1606   PD        0.242078    0.475191    0.380954     0.005394
PD1607   PD        0.241213    0.499851    0.413120     0.005394
PD1608   PD        0.279067    0.464995    0.414521     0.005394
PD1609   PD        0.281742    0.507423    0.381048     0.005394
PD1610   PD        0.314090    0.466264    0.375103     0.005394
PD1611   PD        0.289541    0.504026    0.426325     0.005394
PD1612   PD        0.351888    0.466603    0.410480     0.005394
PD1613   PD        0.349489    0.501770    0.371827     0.005394
PD1614   PD        0.388681    0.467409    0.373566     0.005394
PD1615   PD        0.391468    0.502888    0.411733     0.005394
PD1616   PD        0.425345    0.467567    0.410231     0.005394
PD1617   PD        0.426061    0.505481    0.372519     0.005394
PD1618   PD        0.470753    0.471365    0.366585     0.005394
PD1619   PD        0.460105    0.523699    0.407155     0.005394
PD1620   PD        0.510720    0.470316    0.407730     0.005394
PD1621   PD        0.519600    0.498582    0.379113     0.005394
PD1622   PD        0.532703    0.450192    0.365066     0.005394
PD1623   PD        0.546959    0.505714    0.410312     0.005394
PD1624   PD        0.562222    0.468478    0.427694     0.005394
PD1625   PD        0.580540    0.506261    0.370560     0.005394
PD1626   PD        0.620451    0.458773    0.393245     0.005394
PD1627   PD        0.610260    0.505656    0.411615     0.005394
PD1628   PD        0.654865    0.474204    0.414620     0.005394
PD1629   PD        0.656365    0.521714    0.386438     0.005394
PD1630   PD        0.690450    0.469336    0.376726     0.005394
PD1631   PD        0.694788    0.507151    0.418098     0.005394
PD1632   PD        0.730097    0.470063    0.418140     0.005394
PD1633   PD        0.728521    0.505248    0.379308     0.005394
PD1634   PD        0.765612    0.467563    0.377413     0.005394
PD1635   PD        0.766854    0.504791    0.415264     0.005394
PD1636   PD        0.802583    0.466761    0.414087     0.005394
PD1637   PD        0.802393    0.504365    0.376219     0.005394
NI1638   NI        0.864236    0.442995    0.381759     0.004307
PD1639   PD        0.840646    0.502038    0.411684     0.005394
PD1640   PD        0.876120    0.465330    0.412302     0.005394
PD1641   PD        0.877568    0.501086    0.375097     0.005394
NI1642   NI        0.911474    0.462651    0.375124     0.004307
NI1643   NI        0.915272    0.501865    0.411165     0.004307
NI1644   NI        0.055857    0.538025    0.418158     0.004307
NI1645   NI        0.061465    0.576580    0.386533     0.004307
NI1646   NI        0.083993    0.548573    0.357332     0.004307
NI1647   NI        0.080024    0.577720    0.398915     0.004307
PD1648   PD        0.128315    0.533427    0.417027     0.005394
NI1649   NI        0.130506    0.574036    0.384289     0.004307
PD1650   PD        0.163077    0.535835    0.379434     0.005394
PD1651   PD        0.166157    0.568939    0.420542     0.005394
PD1652   PD        0.206141    0.537047    0.416434     0.005394
PD1653   PD        0.193968    0.577065    0.387473     0.005394
PD1654   PD        0.238865    0.537889    0.377378     0.005394
PD1655   PD        0.237726    0.575113    0.414398     0.005394
PD1656   PD        0.294607    0.536946    0.420474     0.005394
PD1657   PD        0.284971    0.578902    0.376684     0.005394
PD1658   PD        0.319002    0.543656    0.376958     0.005394
PD1659   PD        0.309593    0.578451    0.412612     0.005394
PD1660   PD        0.365484    0.532223    0.399763     0.005394
PD1661   PD        0.359976    0.575968    0.372856     0.005394
PD1662   PD        0.391045    0.511783    0.373023     0.005394
PD1663   PD        0.389573    0.571746    0.425260     0.005394
PD1664   PD        0.438856    0.568911    0.415546     0.005394
PD1665   PD        0.449643    0.556149    0.368443     0.005394
PD1666   PD        0.459192    0.543929    0.373558     0.005394
PD1667   PD        0.470492    0.577990    0.409854     0.005394
PD1668   PD        0.509702    0.538641    0.412157     0.005394
PD1669   PD        0.509904    0.582734    0.371637     0.005394
PD1670   PD        0.543827    0.542806    0.373018     0.005394
PD1671   PD        0.553098    0.572136    0.418966     0.005394
PD1672   PD        0.562114    0.523453    0.416839     0.005394
PD1673   PD        0.581699    0.580029    0.374982     0.005394
PD1674   PD        0.617236    0.542454    0.373189     0.005394
PD1675   PD        0.597373    0.599500    0.420639     0.005394
PD1676   PD        0.671107    0.566869    0.410599     0.005394
PD1677   PD        0.657403    0.580002    0.375326     0.005394
PD1678   PD        0.686255    0.536940    0.381021     0.005394
PD1679   PD        0.687103    0.572924    0.426358     0.005394
PD1680   PD        0.713802    0.530760    0.413284     0.005394
PD1681   PD        0.730900    0.579155    0.378265     0.005394
PD1682   PD        0.767460    0.542951    0.378025     0.005394
PD1683   PD        0.768910    0.579962    0.413382     0.005394
PD1684   PD        0.805304    0.541386    0.412926     0.005394
PD1685   PD        0.804965    0.578446    0.377158     0.005394
PD1686   PD        0.841230    0.539032    0.376860     0.005394
NI1687   NI        0.850533    0.563625    0.400081     0.004307
NI1688   NI        0.878506    0.536454    0.412009     0.004307
NI1689   NI        0.901913    0.565894    0.407228     0.004307
NI1690   NI        0.052061    0.629521    0.448223     0.004307
NI1691   NI        0.049271    0.641071    0.388499     0.004307
NI1692   NI        0.075892    0.623447    0.362095     0.004307
NI1693   NI        0.077122    0.635298    0.399729     0.004307
NI1694   NI        0.126875    0.621666    0.428082     0.004307
NI1695   NI        0.126286    0.676987    0.369793     0.004307
NI1696   NI        0.161376    0.626965    0.376825     0.004307
NI1697   NI        0.154843    0.668605    0.406417     0.004307
NI1698   NI        0.186886    0.623923    0.404337     0.004307
NI1699   NI        0.198806    0.649462    0.388669     0.004307
PD1700   PD        0.233277    0.631125    0.382014     0.005394
PD1701   PD        0.233507    0.668041    0.421055     0.005394
PD1702   PD        0.272012    0.613179    0.411988     0.005394
NI1703   NI        0.268467    0.665464    0.370249     0.004307
PD1704   PD        0.308088    0.614243    0.376150     0.005394
PD1705   PD        0.306123    0.649197    0.416614     0.005394
PD1706   PD        0.368828    0.626046    0.418165     0.005394
PD1707   PD        0.345715    0.648627    0.373206     0.005394
PD1708   PD        0.383401    0.635905    0.374911     0.005394
PD1709   PD        0.380653    0.653294    0.411360     0.005394
PD1710   PD        0.410874    0.611311    0.411381     0.005394
PD1711   PD        0.433002    0.651998    0.376360     0.005394
PD1712   PD        0.471421    0.617940    0.372955     0.005394
PD1713   PD        0.469236    0.652720    0.412630     0.005394
PD1714   PD        0.505709    0.613275    0.411153     0.005394
PD1715   PD        0.506821    0.654963    0.375736     0.005394
PD1716   PD        0.549116    0.613144    0.394037     0.005394
PD1717   PD        0.530880    0.657739    0.413949     0.005394
PD1718   PD        0.578207    0.615418    0.409759     0.005394
PD1719   PD        0.582493    0.652176    0.385067     0.005394
PD1720   PD        0.621562    0.616229    0.379369     0.005394
PD1721   PD        0.617473    0.646463    0.422844     0.005394
PD1722   PD        0.659095    0.616552    0.413398     0.005394
PD1723   PD        0.644863    0.656940    0.367921     0.005394
PD1724   PD        0.689117    0.632959    0.369303     0.005394
PD1725   PD        0.697574    0.654455    0.414008     0.005394
PD1726   PD        0.734550    0.617648    0.414019     0.005394
PD1727   PD        0.732070    0.653779    0.376648     0.005394
PD1728   PD        0.763221    0.618542    0.363946     0.005394
PD1729   PD        0.772123    0.652932    0.414792     0.005394
PD1730   PD        0.807371    0.615152    0.414217     0.005394
PD1731   PD        0.802035    0.650971    0.372943     0.005394
NI1732   NI        0.847068    0.638127    0.391210     0.004307
NI1733   NI        0.820296    0.646577    0.422465     0.004307
NI1734   NI        0.880139    0.612067    0.412108     0.004307
NI1735   NI        0.877456    0.650958    0.375688     0.004307
NI1736   NI        0.086184    0.672259    0.402190     0.004307
NI1737   NI        0.064953    0.758703    0.418776     0.004307
NI1738   NI        0.120357    0.681003    0.421565     0.004307
NI1739   NI        0.133176    0.723580    0.393522     0.004307
NI1740   NI        0.173886    0.693736    0.380609     0.004307
NI1741   NI        0.166783    0.703621    0.423726     0.004307
PD1742   PD        0.210765    0.712671    0.408475     0.005394
NI1743   NI        0.192852    0.741115    0.371912     0.004307
NI1744   NI        0.242414    0.690225    0.377025     0.004307
PD1745   PD        0.246610    0.719765    0.422186     0.005394
PD1746   PD        0.281414    0.680527    0.423910     0.005394
NI1747   NI        0.283637    0.712060    0.357222     0.004307
PD1748   PD        0.298443    0.707188    0.376173     0.005394
PD1749   PD        0.315931    0.721717    0.418700     0.005394
PD1750   PD        0.347892    0.699794    0.425979     0.005394
PD1751   PD        0.350661    0.722435    0.380877     0.005394
PD1752   PD        0.392603    0.715351    0.370960     0.005394
PD1753   PD        0.391979    0.712018    0.404143     0.005394
PD1754   PD        0.430602    0.687021    0.414591     0.005394
PD1755   PD        0.432529    0.733062    0.381346     0.005394
PD1756   PD        0.460881    0.681109    0.386107     0.005394
PD1757   PD        0.461916    0.733526    0.424728     0.005394
PD1758   PD        0.499887    0.701578    0.412367     0.005394
PD1759   PD        0.515654    0.737843    0.386444     0.005394
PD1760   PD        0.519165    0.699891    0.404132     0.005394
NI1761   NI        0.545020    0.730506    0.396278     0.004307
PD1762   PD        0.582871    0.666859    0.406715     0.005394
PD1763   PD        0.564314    0.724578    0.372162     0.005394
PD1764   PD        0.616396    0.684917    0.371228     0.005394
PD1765   PD        0.619348    0.735817    0.433648     0.005394
PD1766   PD        0.659240    0.707552    0.421527     0.005394
PD1767   PD        0.653201    0.716840    0.380154     0.005394
PD1768   PD        0.690291    0.685220    0.367694     0.005394
NI1769   NI        0.714678    0.737237    0.408516     0.004307
PD1770   PD        0.734440    0.689168    0.415472     0.005394
NI1771   NI        0.734264    0.727017    0.378140     0.004307
NI1772   NI        0.774678    0.698094    0.401312     0.004307
NI1773   NI        0.792824    0.744587    0.415123     0.004307
NI1774   NI        0.807000    0.690817    0.417177     0.004307
NI1775   NI        0.800594    0.722406    0.382436     0.004307
NI1776   NI        0.838946    0.686541    0.373219     0.004307
NI1777   NI        0.840906    0.724820    0.415531     0.004307
NI1778   NI        0.140509    0.770747    0.412280     0.004307
NI1779   NI        0.172993    0.786310    0.356738     0.004307
NI1780   NI        0.169377    0.806495    0.387312     0.004307
NI1781   NI        0.210879    0.772715    0.421126     0.004307
NI1782   NI        0.231674    0.820839    0.376659     0.004307
NI1783   NI        0.220672    0.787042    0.374129     0.004307
NI1784   NI        0.247789    0.796336    0.419690     0.004307
NI1785   NI        0.288268    0.764980    0.420796     0.004307
NI1786   NI        0.270043    0.773906    0.378968     0.004307
NI1787   NI        0.321757    0.763156    0.382055     0.004307
NI1788   NI        0.319621    0.811724    0.417578     0.004307
NI1789   NI        0.352520    0.778750    0.421719     0.004307
PD1790   PD        0.358225    0.806670    0.382176     0.005394
PD1791   PD        0.387872    0.761425    0.388738     0.005394
NI1792   NI        0.406224    0.823625    0.407984     0.004307
PD1793   PD        0.427031    0.771393    0.420565     0.005394
PD1794   PD        0.429373    0.805080    0.382369     0.005394
PD1795   PD        0.474174    0.757123    0.361764     0.005394
PD1796   PD        0.467176    0.807661    0.418308     0.005394
PD1797   PD        0.502811    0.767747    0.419537     0.005394
PD1798   PD        0.503266    0.788892    0.386987     0.005394
PD1799   PD        0.545229    0.762630    0.384530     0.005394
PD1800   PD        0.539770    0.802382    0.420038     0.005394
PD1801   PD        0.578597    0.765291    0.420211     0.005394
PD1802   PD        0.577418    0.800825    0.384837     0.005394
NI1803   NI        0.617623    0.763936    0.400674     0.004307
NI1804   NI        0.614574    0.798223    0.421293     0.004307
PD1805   PD        0.654997    0.760989    0.416016     0.005394
NI1806   NI        0.654447    0.809720    0.358845     0.004307
NI1807   NI        0.682382    0.735791    0.379672     0.004307
NI1808   NI        0.688378    0.797189    0.421900     0.004307
NI1809   NI        0.721703    0.757456    0.416925     0.004307
NI1810   NI        0.727606    0.797738    0.383654     0.004307
NI1811   NI        0.768729    0.764650    0.380352     0.004307
NI1812   NI        0.768003    0.798725    0.418517     0.004307
NI1813   NI        0.804084    0.766054    0.419235     0.004307
NI1814   NI        0.209502    0.832252    0.418531     0.004307
NI1815   NI        0.245902    0.834311    0.381228     0.004307
NI1816   NI        0.293754    0.844802    0.391101     0.004307
NI1817   NI        0.281062    0.873643    0.385441     0.004307
NI1818   NI        0.319522    0.840983    0.382488     0.004307
NI1819   NI        0.318912    0.880016    0.418629     0.004307
NI1820   NI        0.357653    0.845049    0.416994     0.004307
NI1821   NI        0.357655    0.878427    0.380110     0.004307
NI1822   NI        0.394063    0.843814    0.380491     0.004307
NI1823   NI        0.386016    0.884601    0.448704     0.004307
PD1824   PD        0.432141    0.846719    0.418385     0.005394
NI1825   NI        0.405708    0.870798    0.368654     0.004307
NI1826   NI        0.467209    0.837424    0.381564     0.004307
NI1827   NI        0.470515    0.883498    0.419297     0.004307
PD1828   PD        0.503865    0.842282    0.417884     0.005394
NI1829   NI        0.523111    0.880846    0.357808     0.004307
PD1830   PD        0.541002    0.838129    0.382371     0.005394
NI1831   NI        0.543089    0.877862    0.418214     0.004307
NI1832   NI        0.578538    0.841036    0.419659     0.004307
NI1833   NI        0.580415    0.874711    0.382695     0.004307
NI1834   NI        0.615051    0.837352    0.385095     0.004307
NI1835   NI        0.618532    0.874924    0.421519     0.004307
NI1836   NI        0.666140    0.869994    0.401041     0.004307
NI1837   NI        0.642488    0.858926    0.378852     0.004307
NI1838   NI        0.685934    0.842827    0.404730     0.004307
NI1839   NI        0.713979    0.847884    0.405544     0.004307
NI1840   NI        0.432116    0.919242    0.416180     0.004307
NI1841   NI        0.443246    0.905365    0.368104     0.004307
NI1842   NI        0.508148    0.914680    0.414580     0.004307
NI1843   NI        0.279610    0.058804    0.460181     0.004307
NI1844   NI        0.318161    0.057888    0.493817     0.004307
NI1845   NI        0.330420    0.057592    0.441124     0.004307
NI1846   NI        0.389606    0.020801    0.456926     0.004307
NI1847   NI        0.378848    0.056905    0.471942     0.004307
NI1848   NI        0.432623    0.001996    0.467474     0.004307
NI1849   NI        0.428779    0.045978    0.477959     0.004307
NI1850   NI        0.463087    0.021979    0.452392     0.004307
NI1851   NI        0.479322    0.058031    0.481886     0.004307
NI1852   NI        0.507309    0.012355    0.474908     0.004307
NI1853   NI        0.510815    0.048389    0.442171     0.004307
NI1854   NI        0.542887    0.025578    0.457586     0.004307
NI1855   NI        0.522915    0.048341    0.507035     0.004307
NI1856   NI        0.576605    0.064040    0.452100     0.004307
NI1857   NI        0.618886    0.040080    0.488140     0.004307
NI1858   NI        0.648537    0.068491    0.456993     0.004307
NI1859   NI        0.159032    0.161126    0.486015     0.004307
NI1860   NI        0.211602    0.070482    0.487801     0.004307
NI1861   NI        0.214685    0.114867    0.461923     0.004307
NI1862   NI        0.228240    0.066378    0.441798     0.004307
PD1863   PD        0.242737    0.134159    0.495515     0.005394
NI1864   NI        0.280229    0.096289    0.492720     0.004307
PD1865   PD        0.278810    0.132313    0.455619     0.005394
NI1866   NI        0.324279    0.077117    0.438768     0.004307
PD1867   PD        0.315805    0.131884    0.494134     0.005394
PD1868   PD        0.354598    0.098165    0.492010     0.005394
NI1869   NI        0.348533    0.134523    0.434034     0.004307
NI1870   NI        0.399343    0.084613    0.433390     0.004307
NI1871   NI        0.378465    0.107798    0.500062     0.004307
NI1872   NI        0.424700    0.085332    0.509726     0.004307
PD1873   PD        0.426885    0.130787    0.450683     0.005394
NI1874   NI        0.467897    0.073522    0.455416     0.004307
PD1875   PD        0.462973    0.129727    0.488271     0.005394
PD1876   PD        0.501864    0.093715    0.490301     0.005394
NI1877   NI        0.511175    0.101979    0.453792     0.004307
NI1878   NI        0.545485    0.068706    0.475981     0.004307
PD1879   PD        0.539157    0.127196    0.490969     0.005394
NI1880   NI        0.597809    0.084758    0.511490     0.004307
NI1881   NI        0.590585    0.135257    0.428092     0.004307
NI1882   NI        0.613022    0.087119    0.464396     0.004307
NI1883   NI        0.606235    0.129855    0.502287     0.004307
NI1884   NI        0.648968    0.102135    0.492489     0.004307
NI1885   NI        0.666248    0.119973    0.465896     0.004307
NI1886   NI        0.687754    0.102512    0.456025     0.004307
NI1887   NI        0.692894    0.127620    0.482956     0.004307
NI1888   NI        0.741772    0.103091    0.504914     0.004307
NI1889   NI        0.731491    0.107494    0.453532     0.004307
NI1890   NI        0.780977    0.129665    0.479852     0.004307
NI1891   NI        0.058846    0.227964    0.506424     0.004307
NI1892   NI        0.132433    0.174085    0.494398     0.004307
NI1893   NI        0.102320    0.204913    0.441815     0.004307
NI1894   NI        0.126783    0.151296    0.451695     0.004307
PD1895   PD        0.171499    0.209017    0.491026     0.005394
PD1896   PD        0.204947    0.171898    0.491042     0.005394
PD1897   PD        0.206302    0.208786    0.453531     0.005394
PD1898   PD        0.241894    0.170327    0.457806     0.005394
NI1899   NI        0.207829    0.179931    0.495382     0.004307
PD1900   PD        0.279322    0.170142    0.493661     0.005394
PD1901   PD        0.280648    0.206610    0.456484     0.005394
PD1902   PD        0.315762    0.170668    0.456056     0.005394
PD1903   PD        0.318459    0.206073    0.493131     0.005394
NI1904   NI        0.355847    0.162764    0.491887     0.004307
PD1905   PD        0.350732    0.202859    0.451494     0.005394
NI1906   NI        0.387171    0.159147    0.464607     0.004307
PD1907   PD        0.404498    0.196352    0.494803     0.005394
NI1908   NI        0.422106    0.159149    0.504246     0.004307
PD1909   PD        0.426653    0.203161    0.453207     0.005394
PD1910   PD        0.465956    0.167189    0.452253     0.005394
PD1911   PD        0.456561    0.194820    0.496555     0.005394
PD1912   PD        0.500058    0.166143    0.489042     0.005394
PD1913   PD        0.492555    0.199208    0.471001     0.005394
PD1914   PD        0.537650    0.177041    0.453132     0.005394
PD1915   PD        0.565494    0.208752    0.491995     0.005394
PD1916   PD        0.572896    0.168201    0.490464     0.005394
PD1917   PD        0.575932    0.222678    0.442680     0.005394
PD1918   PD        0.612297    0.173602    0.455807     0.005394
PD1919   PD        0.612884    0.189395    0.496240     0.005394
NI1920   NI        0.646253    0.163575    0.487228     0.004307
PD1921   PD        0.650320    0.201295    0.448869     0.005394
NI1922   NI        0.699748    0.164595    0.460397     0.004307
NI1923   NI        0.672222    0.195962    0.518735     0.004307
NI1924   NI        0.722269    0.174726    0.492048     0.004307
NI1925   NI        0.738446    0.198881    0.463083     0.004307
PD1926   PD        0.761372    0.174472    0.455347     0.005394
NI1927   NI        0.785779    0.194874    0.488054     0.004307
NI1928   NI        0.812308    0.161239    0.505492     0.004307
NI1929   NI        0.800226    0.207302    0.453122     0.004307
NI1930   NI        0.833298    0.210322    0.492624     0.004307
NI1931   NI        0.059364    0.280197    0.456323     0.004307
NI1932   NI        0.097344    0.245542    0.452666     0.004307
NI1933   NI        0.098101    0.280044    0.490335     0.004307
PD1934   PD        0.134036    0.245970    0.492329     0.005394
NI1935   NI        0.125659    0.249868    0.452748     0.004307
NI1936   NI        0.147326    0.239300    0.448409     0.004307
NI1937   NI        0.161655    0.288372    0.500622     0.004307
NI1938   NI        0.185329    0.244964    0.486153     0.004307
PD1939   PD        0.210277    0.279613    0.454341     0.005394
NI1940   NI        0.233362    0.242797    0.469921     0.004307
PD1941   PD        0.245453    0.281521    0.490690     0.005394
PD1942   PD        0.279564    0.244501    0.491682     0.005394
PD1943   PD        0.281374    0.280720    0.453305     0.005394
PD1944   PD        0.319006    0.244148    0.456832     0.005394
PD1945   PD        0.320246    0.280518    0.492856     0.005394
PD1946   PD        0.352081    0.242121    0.490248     0.005394
PD1947   PD        0.354159    0.280646    0.454277     0.005394
PD1948   PD        0.391270    0.243459    0.454086     0.005394
PD1949   PD        0.399824    0.284822    0.475964     0.005394
PD1950   PD        0.428275    0.251562    0.497197     0.005394
PD1951   PD        0.451990    0.283493    0.464157     0.005394
PD1952   PD        0.465094    0.240267    0.453605     0.005394
PD1953   PD        0.477466    0.266866    0.499717     0.005394
PD1954   PD        0.500184    0.240633    0.491824     0.005394
PD1955   PD        0.500049    0.280251    0.456807     0.005394
PD1956   PD        0.530760    0.243764    0.452220     0.005394
PD1957   PD        0.537624    0.277128    0.492031     0.005394
PD1958   PD        0.592457    0.241306    0.508866     0.005394
PD1959   PD        0.587456    0.267493    0.463750     0.005394
PD1960   PD        0.612269    0.236383    0.453718     0.005394
PD1961   PD        0.627240    0.276833    0.497135     0.005394
PD1962   PD        0.652044    0.233436    0.488149     0.005394
PD1963   PD        0.661729    0.274291    0.459368     0.005394
PD1964   PD        0.689581    0.235906    0.448392     0.005394
PD1965   PD        0.690494    0.277885    0.504298     0.005394
NI1966   NI        0.721098    0.245600    0.475099     0.004307
NI1967   NI        0.747976    0.278710    0.443349     0.004307
PD1968   PD        0.763969    0.245660    0.453269     0.005394
PD1969   PD        0.762023    0.284126    0.490431     0.005394
NI1970   NI        0.801237    0.245062    0.492497     0.004307
NI1971   NI        0.776961    0.284801    0.470512     0.004307
NI1972   NI        0.821808    0.233186    0.451833     0.004307
NI1973   NI        0.835352    0.283040    0.490699     0.004307
NI1974   NI        0.874443    0.281468    0.452234     0.004307
NI1975   NI        0.058424    0.317120    0.491755     0.004307
NI1976   NI        0.060737    0.353679    0.453220     0.004307
NI1977   NI        0.096696    0.317447    0.454894     0.004307
NI1978   NI        0.086127    0.340217    0.517439     0.004307
NI1979   NI        0.117028    0.311944    0.490018     0.004307
NI1980   NI        0.111736    0.340359    0.445592     0.004307
PD1981   PD        0.158028    0.326567    0.462165     0.005394
PD1982   PD        0.171262    0.352825    0.491119     0.005394
NI1983   NI        0.183058    0.294420    0.492851     0.004307
PD1984   PD        0.207423    0.353250    0.453862     0.005394
PD1985   PD        0.245717    0.316971    0.454273     0.005394
PD1986   PD        0.244765    0.353639    0.491288     0.005394
PD1987   PD        0.283784    0.319490    0.491707     0.005394
PD1988   PD        0.282028    0.355999    0.451687     0.005394
PD1989   PD        0.319556    0.319342    0.453997     0.005394
PD1990   PD        0.319492    0.355470    0.488307     0.005394
PD1991   PD        0.352957    0.304221    0.499566     0.005394
PD1992   PD        0.355089    0.356550    0.448083     0.005394
PD1993   PD        0.407642    0.303550    0.447659     0.005394
PD1994   PD        0.396926    0.364784    0.492766     0.005394
PD1995   PD        0.428049    0.322960    0.490872     0.005394
PD1996   PD        0.435009    0.340419    0.468726     0.005394
PD1997   PD        0.475995    0.321856    0.440198     0.005394
PD1998   PD        0.465743    0.356137    0.488306     0.005394
PD1999   PD        0.502188    0.312877    0.492679     0.005394
PD2000   PD        0.500510    0.357619    0.449215     0.005394
PD2001   PD        0.533207    0.317936    0.461987     0.005394
PD2002   PD        0.537217    0.345717    0.488387     0.005394
PD2003   PD        0.576452    0.311636    0.487711     0.005394
PD2004   PD        0.573591    0.349929    0.453735     0.005394
PD2005   PD        0.622752    0.312572    0.463082     0.005394
PD2006   PD        0.616552    0.340885    0.490565     0.005394
PD2007   PD        0.663881    0.318176    0.483908     0.005394
PD2008   PD        0.664810    0.353496    0.441300     0.005394
PD2009   PD        0.694729    0.312890    0.448613     0.005394
PD2010   PD        0.689872    0.364921    0.497703     0.005394
PD2011   PD        0.735527    0.307842    0.493308     0.005394
PD2012   PD        0.728167    0.357592    0.451484     0.005394
PD2013   PD        0.763794    0.321782    0.453152     0.005394
PD2014   PD        0.763515    0.356248    0.489497     0.005394
PD2015   PD        0.802227    0.320168    0.489488     0.005394
NI2016   NI        0.823321    0.368632    0.462446     0.004307
PD2017   PD        0.837722    0.319032    0.454309     0.005394
PD2018   PD        0.840046    0.356730    0.491236     0.005394
NI2019   NI        0.875639    0.318721    0.489836     0.004307
PD2020   PD        0.873722    0.355752    0.453229     0.005394
NI2021   NI        0.021092    0.389115    0.454012     0.004307
NI2022   NI        0.017996    0.426340    0.487063     0.004307
NI2023   NI        0.060604    0.388053    0.490219     0.004307
NI2024   NI        0.059954    0.426301    0.453790     0.004307
PD2025   PD        0.096833    0.389938    0.454492     0.005394
PD2026   PD        0.096203    0.426774    0.493406     0.005394
NI2027   NI        0.125810    0.399046    0.496885     0.004307
PD2028   PD        0.128491    0.461366    0.420233     0.005394
PD2029   PD        0.145108    0.376984    0.453729     0.005394
PD2030   PD        0.170819    0.426355    0.492466     0.005394
PD2031   PD        0.209063    0.390047    0.489300     0.005394
PD2032   PD        0.204507    0.445090    0.457649     0.005394
PD2033   PD        0.229865    0.356635    0.448718     0.005394
PD2034   PD        0.242731    0.430653    0.489848     0.005394
PD2035   PD        0.280906    0.392027    0.489128     0.005394
PD2036   PD        0.280663    0.428486    0.450489     0.005394
PD2037   PD        0.307979    0.391999    0.465121     0.005394
PD2038   PD        0.316375    0.430764    0.490387     0.005394
PD2039   PD        0.354111    0.393364    0.488406     0.005394
PD2040   PD        0.374934    0.418243    0.464831     0.005394
PD2041   PD        0.394855    0.371672    0.479401     0.005394
PD2042   PD        0.396873    0.417076    0.502192     0.005394
PD2043   PD        0.417036    0.372581    0.485611     0.005394
PD2044   PD        0.420094    0.424110    0.470684     0.005394
PD2045   PD        0.456381    0.403416    0.469296     0.005394
PD2046   PD        0.463840    0.423548    0.501462     0.005394
PD2047   PD        0.520268    0.392641    0.489830     0.005394
PD2048   PD        0.492105    0.421021    0.457048     0.005394
PD2049   PD        0.538147    0.380569    0.471609     0.005394
PD2050   PD        0.536115    0.425199    0.500642     0.005394
PD2051   PD        0.568251    0.393829    0.495353     0.005394
PD2052   PD        0.595258    0.447179    0.451505     0.005394
PD2053   PD        0.615341    0.402805    0.461664     0.005394
PD2054   PD        0.624199    0.445995    0.485673     0.005394
PD2055   PD        0.644627    0.380258    0.480719     0.005394
PD2056   PD        0.657635    0.432678    0.450267     0.005394
PD2057   PD        0.698712    0.397333    0.439504     0.005394
PD2058   PD        0.689278    0.429107    0.506434     0.005394
PD2059   PD        0.731061    0.395080    0.489115     0.005394
PD2060   PD        0.732112    0.432871    0.452645     0.005394
PD2061   PD        0.768306    0.394394    0.451280     0.005394
PD2062   PD        0.764882    0.433697    0.488909     0.005394
PD2063   PD        0.800042    0.394587    0.490909     0.005394
NI2064   NI        0.809115    0.418192    0.468113     0.004307
PD2065   PD        0.838282    0.394134    0.452606     0.005394
PD2066   PD        0.839894    0.430384    0.489097     0.005394
PD2067   PD        0.874048    0.392698    0.489890     0.005394
NI2068   NI        0.890347    0.437063    0.441425     0.004307
NI2069   NI        0.912742    0.392446    0.452994     0.004307
NI2070   NI        0.912816    0.428749    0.486998     0.004307
NI2071   NI        0.024230    0.464646    0.456465     0.004307
NI2072   NI        0.000769    0.543680    0.490874     0.004307
NI2073   NI        0.025888    0.499641    0.492699     0.004307
NI2074   NI        0.028745    0.506422    0.450554     0.004307
NI2075   NI        0.095897    0.461238    0.454209     0.004307
NI2076   NI        0.082325    0.501322    0.487659     0.004307
PD2077   PD        0.132390    0.461074    0.490093     0.005394
PD2078   PD        0.130573    0.498336    0.454195     0.005394
PD2079   PD        0.168110    0.461946    0.455482     0.005394
PD2080   PD        0.183690    0.506888    0.478581     0.005394
PD2081   PD        0.205700    0.463380    0.489811     0.005394
PD2082   PD        0.203959    0.497443    0.449718     0.005394
PD2083   PD        0.242335    0.463572    0.450679     0.005394
PD2084   PD        0.240255    0.502052    0.485692     0.005394
PD2085   PD        0.280758    0.465936    0.485988     0.005394
PD2086   PD        0.264978    0.509233    0.439408     0.005394
PD2087   PD        0.308899    0.472389    0.461322     0.005394
PD2088   PD        0.315321    0.504248    0.484468     0.005394
PD2089   PD        0.350588    0.469180    0.483975     0.005394
PD2090   PD        0.351963    0.501851    0.447667     0.005394
PD2091   PD        0.410148    0.472198    0.452075     0.005394
PD2092   PD        0.414254    0.512020    0.486713     0.005394
PD2093   PD        0.431806    0.464585    0.500308     0.005394
PD2094   PD        0.420817    0.513817    0.468279     0.005394
PD2095   PD        0.457867    0.455586    0.466481     0.005394
PD2096   PD        0.453509    0.510613    0.497895     0.005394
PD2097   PD        0.500837    0.459132    0.492712     0.005394
PD2098   PD        0.503276    0.511974    0.478418     0.005394
PD2099   PD        0.548398    0.467522    0.448972     0.005394
PD2100   PD        0.544283    0.481120    0.477035     0.005394
PD2101   PD        0.572779    0.444188    0.489178     0.005394
PD2102   PD        0.567326    0.505502    0.439440     0.005394
PD2103   PD        0.598893    0.467788    0.450470     0.005394
PD2104   PD        0.619669    0.508964    0.484698     0.005394
PD2105   PD        0.673024    0.460087    0.499595     0.005394
PD2106   PD        0.637039    0.502392    0.454221     0.005394
PD2107   PD        0.691531    0.468607    0.451457     0.005394
PD2108   PD        0.708356    0.501177    0.505632     0.005394
PD2109   PD        0.745971    0.466174    0.496537     0.005394
PD2110   PD        0.732546    0.506086    0.454986     0.005394
PD2111   PD        0.767452    0.468960    0.451020     0.005394
PD2112   PD        0.768491    0.505569    0.485949     0.005394
PD2113   PD        0.802816    0.466797    0.487760     0.005394
PD2114   PD        0.806149    0.505594    0.450491     0.005394
NI2115   NI        0.861927    0.494506    0.454699     0.004307
PD2116   PD        0.842470    0.504111    0.486866     0.005394
PD2117   PD        0.879080    0.465930    0.486753     0.005394
PD2118   PD        0.879690    0.503569    0.449163     0.005394
NI2119   NI        0.914522    0.464745    0.450778     0.004307
NI2120   NI        0.912433    0.503548    0.488525     0.004307
NI2121   NI        0.022130    0.538654    0.456516     0.004307
NI2122   NI        0.045434    0.526227    0.466699     0.004307
NI2123   NI        0.058469    0.574247    0.455920     0.004307
NI2124   NI        0.077867    0.523110    0.456681     0.004307
NI2125   NI        0.073383    0.560911    0.511943     0.004307
NI2126   NI        0.116235    0.540388    0.489028     0.004307
NI2127   NI        0.131744    0.572157    0.460933     0.004307
PD2128   PD        0.164114    0.546865    0.467473     0.005394
NI2129   NI        0.165728    0.594880    0.485402     0.004307
PD2130   PD        0.207381    0.550178    0.495354     0.005394
PD2131   PD        0.196236    0.579228    0.466259     0.005394
PD2132   PD        0.239198    0.546844    0.459720     0.005394
PD2133   PD        0.232662    0.575087    0.503572     0.005394
PD2134   PD        0.263997    0.534682    0.505767     0.005394
PD2135   PD        0.273547    0.592483    0.447246     0.005394
PD2136   PD        0.293294    0.524395    0.441651     0.005394
PD2137   PD        0.302826    0.587049    0.489168     0.005394
PD2138   PD        0.363134    0.557396    0.486450     0.005394
PD2139   PD        0.343348    0.589349    0.440678     0.005394
PD2140   PD        0.386494    0.542415    0.446369     0.005394
PD2141   PD        0.391074    0.571369    0.488948     0.005394
PD2142   PD        0.434757    0.558288    0.483751     0.005394
PD2143   PD        0.430940    0.567183    0.456554     0.005394
PD2144   PD        0.465983    0.533278    0.451843     0.005394
PD2145   PD        0.458144    0.579014    0.525958     0.005394
PD2146   PD        0.499101    0.532981    0.488214     0.005394
PD2147   PD        0.524341    0.596895    0.458285     0.005394
PD2148   PD        0.532614    0.547487    0.452064     0.005394
PD2149   PD        0.547146    0.579861    0.483264     0.005394
PD2150   PD        0.566903    0.549111    0.491275     0.005394
PD2151   PD        0.587548    0.592606    0.452757     0.005394
PD2152   PD        0.635497    0.517450    0.455366     0.005394
PD2153   PD        0.617680    0.585085    0.481341     0.005394
PD2154   PD        0.657816    0.539406    0.498564     0.005394
PD2155   PD        0.647774    0.568191    0.457762     0.005394
PD2156   PD        0.712105    0.532697    0.464646     0.005394
PD2157   PD        0.691366    0.579140    0.483384     0.005394
PD2158   PD        0.742675    0.538603    0.506085     0.005394
PD2159   PD        0.733271    0.579608    0.450093     0.005394
PD2160   PD        0.768431    0.543447    0.450808     0.005394
NI2161   NI        0.768670    0.594937    0.497039     0.004307
PD2162   PD        0.790900    0.536212    0.492556     0.005394
PD2163   PD        0.807865    0.578613    0.450260     0.005394
NI2164   NI        0.852577    0.517248    0.459689     0.004307
PD2165   PD        0.843898    0.576328    0.487226     0.005394
NI2166   NI        0.880081    0.539134    0.487031     0.004307
NI2167   NI        0.881423    0.575399    0.448894     0.004307
NI2168   NI        0.915853    0.537489    0.449515     0.004307
NI2169   NI        0.049413    0.616607    0.475832     0.004307
NI2170   NI        0.058652    0.651987    0.439543     0.004307
NI2171   NI        0.097994    0.608343    0.460250     0.004307
NI2172   NI        0.091412    0.658015    0.500106     0.004307
NI2173   NI        0.120283    0.613387    0.502666     0.004307
NI2174   NI        0.127975    0.655416    0.464600     0.004307
NI2175   NI        0.175684    0.630467    0.451723     0.004307
NI2176   NI        0.175956    0.644414    0.480282     0.004307
NI2177   NI        0.199132    0.607853    0.491064     0.004307
NI2178   NI        0.202184    0.646294    0.456277     0.004307
PD2179   PD        0.231560    0.609199    0.465080     0.005394
PD2180   PD        0.237779    0.661550    0.492177     0.005394
PD2181   PD        0.272875    0.625556    0.487412     0.005394
PD2182   PD        0.273727    0.665444    0.454586     0.005394
PD2183   PD        0.327722    0.613154    0.448487     0.005394
PD2184   PD        0.311249    0.665127    0.490311     0.005394
PD2185   PD        0.361106    0.607806    0.486306     0.005394
PD2186   PD        0.363879    0.648938    0.463283     0.005394
PD2187   PD        0.402371    0.611359    0.457806     0.005394
PD2188   PD        0.397088    0.666586    0.499191     0.005394
PD2189   PD        0.431179    0.601196    0.499811     0.005394
PD2190   PD        0.427095    0.653797    0.434725     0.005394
PD2191   PD        0.482027    0.624804    0.453373     0.005394
PD2192   PD        0.475424    0.660005    0.488006     0.005394
PD2193   PD        0.498244    0.606527    0.495138     0.005394
PD2194   PD        0.503219    0.643805    0.451757     0.005394
PD2195   PD        0.541742    0.611243    0.471117     0.005394
PD2196   PD        0.525882    0.649709    0.490143     0.005394
PD2197   PD        0.587513    0.625131    0.503731     0.005394
PD2198   PD        0.616147    0.659560    0.453586     0.005394
PD2199   PD        0.628189    0.610493    0.461341     0.005394
PD2200   PD        0.624322    0.651111    0.482090     0.005394
PD2201   PD        0.656825    0.614494    0.499637     0.005394
PD2202   PD        0.661189    0.656955    0.447359     0.005394
PD2203   PD        0.695978    0.616752    0.450323     0.005394
PD2204   PD        0.699257    0.648363    0.488440     0.005394
PD2205   PD        0.706794    0.613356    0.510599     0.005394
PD2206   PD        0.732490    0.651541    0.450710     0.005394
PD2207   PD        0.772903    0.615294    0.449444     0.005394
NI2208   NI        0.784045    0.673740    0.501192     0.004307
NI2209   NI        0.820567    0.618347    0.506493     0.004307
NI2210   NI        0.798735    0.641559    0.470271     0.004307
PD2211   PD        0.843989    0.613185    0.450159     0.005394
NI2212   NI        0.843436    0.652653    0.484820     0.004307
NI2213   NI        0.851764    0.618132    0.517587     0.004307
NI2214   NI        0.877430    0.686548    0.489345     0.004307
NI2215   NI        0.099374    0.684076    0.451368     0.004307
NI2216   NI        0.088966    0.727553    0.505509     0.004307
NI2217   NI        0.124350    0.694821    0.488632     0.004307
NI2218   NI        0.114845    0.751701    0.430609     0.004307
NI2219   NI        0.158157    0.696379    0.449824     0.004307
NI2220   NI        0.170480    0.733255    0.485843     0.004307
NI2221   NI        0.194946    0.686519    0.484697     0.004307
NI2222   NI        0.216171    0.724541    0.458288     0.004307
PD2223   PD        0.232986    0.687970    0.448557     0.005394
NI2224   NI        0.241766    0.741194    0.502234     0.004307
PD2225   PD        0.284186    0.679906    0.495114     0.005394
PD2226   PD        0.283018    0.735687    0.459779     0.005394
PD2227   PD        0.320379    0.697848    0.460257     0.005394
PD2228   PD        0.321572    0.716748    0.492343     0.005394
PD2229   PD        0.366007    0.691358    0.483836     0.005394
PD2230   PD        0.349804    0.727428    0.428262     0.005394
PD2231   PD        0.404158    0.699066    0.459363     0.005394
PD2232   PD        0.388916    0.736724    0.488442     0.005394
PD2233   PD        0.436645    0.689760    0.474213     0.005394
PD2234   PD        0.426483    0.716401    0.456940     0.005394
PD2235   PD        0.455008    0.703401    0.467596     0.005394
PD2236   PD        0.460463    0.733560    0.492992     0.005394
PD2237   PD        0.502230    0.706164    0.487536     0.005394
PD2238   PD        0.498502    0.731817    0.457431     0.005394
PD2239   PD        0.538978    0.683691    0.455812     0.005394
PD2240   PD        0.543641    0.738206    0.481552     0.005394
PD2241   PD        0.588712    0.685684    0.494462     0.005394
PD2242   PD        0.587241    0.736768    0.487380     0.005394
PD2243   PD        0.622836    0.688829    0.450721     0.005394
NI2244   NI        0.619959    0.740248    0.497003     0.004307
PD2245   PD        0.659502    0.680357    0.492700     0.005394
PD2246   PD        0.658693    0.740462    0.462760     0.005394
PD2247   PD        0.698484    0.692316    0.450801     0.005394
PD2248   PD        0.682139    0.727611    0.505274     0.005394
NI2249   NI        0.723943    0.713935    0.477324     0.004307
PD2250   PD        0.733239    0.725833    0.452729     0.005394
PD2251   PD        0.769253    0.689969    0.453143     0.005394
NI2252   NI        0.769968    0.725319    0.490252     0.004307
NI2253   NI        0.786901    0.694961    0.491748     0.004307
NI2254   NI        0.805992    0.726661    0.455626     0.004307
NI2255   NI        0.831339    0.683382    0.463278     0.004307
NI2256   NI        0.842934    0.726252    0.489052     0.004307
NI2257   NI        0.122707    0.766358    0.513103     0.004307
NI2258   NI        0.173495    0.758165    0.456554     0.004307
NI2259   NI        0.168805    0.825561    0.479884     0.004307
NI2260   NI        0.198672    0.769563    0.509204     0.004307
NI2261   NI        0.209395    0.822192    0.447293     0.004307
NI2262   NI        0.251826    0.758560    0.457009     0.004307
NI2263   NI        0.249311    0.793195    0.492246     0.004307
NI2264   NI        0.286807    0.772229    0.495083     0.004307
NI2265   NI        0.286104    0.804414    0.455595     0.004307
PD2266   PD        0.328464    0.757603    0.463065     0.005394
NI2267   NI        0.321858    0.808561    0.493995     0.004307
NI2268   NI        0.360202    0.774134    0.494585     0.004307
NI2269   NI        0.347665    0.800435    0.469936     0.004307
PD2270   PD        0.390969    0.775951    0.456014     0.005394
PD2271   PD        0.395166    0.813489    0.491804     0.005394
PD2272   PD        0.426523    0.772738    0.494258     0.005394
PD2273   PD        0.430579    0.810365    0.455084     0.005394
PD2274   PD        0.462608    0.772299    0.454980     0.005394
PD2275   PD        0.468318    0.809720    0.491212     0.005394
PD2276   PD        0.499960    0.769218    0.493594     0.005394
NI2277   NI        0.504340    0.810386    0.443829     0.004307
PD2278   PD        0.541306    0.775129    0.444647     0.005394
NI2279   NI        0.539308    0.788617    0.494718     0.004307
PD2280   PD        0.575166    0.758072    0.478773     0.005394
PD2281   PD        0.575918    0.804151    0.456783     0.005394
PD2282   PD        0.620766    0.779380    0.461978     0.005394
PD2283   PD        0.612465    0.799059    0.493808     0.005394
NI2284   NI        0.660255    0.777109    0.500080     0.004307
NI2285   NI        0.651385    0.791890    0.457756     0.004307
PD2286   PD        0.688649    0.755261    0.454426     0.005394
NI2287   NI        0.700572    0.814193    0.490106     0.004307
PD2288   PD        0.723043    0.758881    0.491181     0.005394
NI2289   NI        0.725627    0.794505    0.456084     0.004307
NI2290   NI        0.767583    0.762210    0.454571     0.004307
NI2291   NI        0.762101    0.794650    0.494186     0.004307
NI2292   NI        0.801469    0.763473    0.492620     0.004307
NI2293   NI        0.196350    0.840467    0.459223     0.004307
NI2294   NI        0.247604    0.845753    0.456360     0.004307
NI2295   NI        0.258567    0.834005    0.500260     0.004307
NI2296   NI        0.296049    0.890268    0.476448     0.004307
NI2297   NI        0.297542    0.852871    0.441426     0.004307
NI2298   NI        0.322000    0.885069    0.490567     0.004307
PD2299   PD        0.357306    0.848701    0.490674     0.005394
NI2300   NI        0.358398    0.884815    0.453629     0.004307
PD2301   PD        0.394900    0.848404    0.453670     0.005394
NI2302   NI        0.403159    0.870699    0.475771     0.004307
PD2303   PD        0.432012    0.847115    0.492019     0.005394
PD2304   PD        0.432277    0.884063    0.454748     0.005394
PD2305   PD        0.468353    0.846591    0.454966     0.005394
NI2306   NI        0.490139    0.896546    0.487521     0.004307
PD2307   PD        0.505726    0.845341    0.492102     0.005394
NI2308   NI        0.502345    0.901290    0.443406     0.004307
PD2309   PD        0.540648    0.840481    0.454202     0.005394
NI2310   NI        0.543325    0.879374    0.492155     0.004307
PD2311   PD        0.579607    0.839647    0.492678     0.005394
NI2312   NI        0.566195    0.866174    0.451234     0.004307
PD2313   PD        0.614885    0.836678    0.457301     0.005394
NI2314   NI        0.611975    0.898770    0.522125     0.004307
NI2315   NI        0.651209    0.828893    0.491348     0.004307
NI2316   NI        0.662599    0.873615    0.435259     0.004307
NI2317   NI        0.691143    0.833914    0.458767     0.004307
NI2318   NI        0.733789    0.852948    0.482748     0.004307
NI2319   NI        0.394998    0.921268    0.452387     0.004307
NI2320   NI        0.433938    0.920986    0.491053     0.004307
NI2321   NI        0.471978    0.919121    0.453734     0.004307
NI2322   NI        0.507256    0.918269    0.492688     0.004307
NI2323   NI        0.544689    0.915886    0.456087     0.004307
NI2324   NI        0.295497    0.051754    0.535908     0.004307
NI2325   NI        0.330459    0.042427    0.545393     0.004307
NI2326   NI        0.369353    0.072597    0.535284     0.004307
NI2327   NI        0.394193    0.059771    0.563858     0.004307
NI2328   NI        0.432266    0.056017    0.551279     0.004307
NI2329   NI        0.452315    0.039308    0.519150     0.004307
NI2330   NI        0.486367    0.045274    0.556276     0.004307
NI2331   NI        0.501073    0.056325    0.527289     0.004307
NI2332   NI        0.560527    0.033369    0.561902     0.004307
NI2333   NI        0.570234    0.051610    0.527301     0.004307
NI2334   NI        0.605702    0.048021    0.565217     0.004307
NI2335   NI        0.640815    0.059536    0.530539     0.004307
NI2336   NI        0.205746    0.134241    0.529973     0.004307
NI2337   NI        0.247786    0.095633    0.523841     0.004307
NI2338   NI        0.238354    0.115270    0.559351     0.004307
NI2339   NI        0.251198    0.106613    0.584057     0.004307
NI2340   NI        0.261449    0.135817    0.546141     0.004307
NI2341   NI        0.321351    0.093951    0.528212     0.004307
NI2342   NI        0.307107    0.127377    0.568146     0.004307
NI2343   NI        0.333134    0.085105    0.552497     0.004307
NI2344   NI        0.366287    0.124176    0.530347     0.004307
NI2345   NI        0.388269    0.082865    0.548899     0.004307
PD2346   PD        0.392555    0.133019    0.567079     0.005394
PD2347   PD        0.429098    0.097390    0.565008     0.005394
NI2348   NI        0.425960    0.133234    0.511290     0.004307
NI2349   NI        0.467594    0.097553    0.529541     0.004307
PD2350   PD        0.464006    0.134813    0.576196     0.005394
NI2351   NI        0.476249    0.097648    0.534519     0.004307
PD2352   PD        0.500268    0.128724    0.525996     0.005394
NI2353   NI        0.526650    0.086288    0.522818     0.004307
NI2354   NI        0.551073    0.130632    0.576460     0.004307
NI2355   NI        0.568536    0.083175    0.551438     0.004307
NI2356   NI        0.580340    0.130374    0.545766     0.004307
NI2357   NI        0.614265    0.096839    0.529129     0.004307
PD2358   PD        0.612076    0.136046    0.565658     0.005394
NI2359   NI        0.627448    0.094094    0.578073     0.004307
NI2360   NI        0.649890    0.137906    0.528548     0.004307
NI2361   NI        0.687558    0.101419    0.528812     0.004307
NI2362   NI        0.685385    0.128172    0.571116     0.004307
NI2363   NI        0.722368    0.120600    0.536511     0.004307
NI2364   NI        0.106378    0.210512    0.515314     0.004307
NI2365   NI        0.170467    0.171775    0.530682     0.004307
NI2366   NI        0.179103    0.187350    0.553260     0.004307
NI2367   NI        0.199492    0.162550    0.593053     0.004307
NI2368   NI        0.203186    0.213573    0.524201     0.004307
PD2369   PD        0.244097    0.171128    0.529288     0.005394
NI2370   NI        0.271322    0.200274    0.570744     0.004307
NI2371   NI        0.261455    0.155664    0.581436     0.004307
PD2372   PD        0.282219    0.206995    0.530542     0.005394
PD2373   PD        0.317926    0.171726    0.528156     0.005394
PD2374   PD        0.317706    0.203818    0.568007     0.005394
PD2375   PD        0.356538    0.170480    0.564808     0.005394
PD2376   PD        0.357049    0.207603    0.529016     0.005394
PD2377   PD        0.393063    0.171245    0.527815     0.005394
PD2378   PD        0.390885    0.206280    0.566321     0.005394
PD2379   PD        0.429746    0.174839    0.566188     0.005394
PD2380   PD        0.426543    0.204721    0.530071     0.005394
PD2381   PD        0.461189    0.167340    0.523322     0.005394
PD2382   PD        0.457900    0.194227    0.568892     0.005394
PD2383   PD        0.495738    0.161390    0.562058     0.005394
PD2384   PD        0.500815    0.202286    0.526037     0.005394
PD2385   PD        0.537869    0.165959    0.526132     0.005394
PD2386   PD        0.540997    0.202630    0.562672     0.005394
NI2387   NI        0.592150    0.159063    0.571363     0.004307
PD2388   PD        0.591487    0.196986    0.543112     0.005394
PD2389   PD        0.627925    0.160700    0.537483     0.005394
NI2390   NI        0.605910    0.151349    0.586319     0.004307
NI2391   NI        0.652225    0.168050    0.568792     0.004307
PD2392   PD        0.661256    0.224163    0.535107     0.005394
NI2393   NI        0.695324    0.163680    0.552127     0.004307
NI2394   NI        0.693983    0.218704    0.557133     0.004307
NI2395   NI        0.721516    0.167556    0.564936     0.004307
NI2396   NI        0.744863    0.213749    0.535017     0.004307
NI2397   NI        0.764060    0.173238    0.528303     0.004307
NI2398   NI        0.777513    0.202585    0.569490     0.004307
NI2399   NI        0.813831    0.205625    0.531102     0.004307
NI2400   NI        0.076481    0.265939    0.526394     0.004307
NI2401   NI        0.104532    0.236102    0.525675     0.004307
NI2402   NI        0.078333    0.279033    0.564267     0.004307
NI2403   NI        0.137120    0.243977    0.564967     0.004307
NI2404   NI        0.116236    0.274440    0.524122     0.004307
PD2405   PD        0.171937    0.246687    0.529056     0.005394
PD2406   PD        0.166474    0.292912    0.558955     0.005394
PD2407   PD        0.210707    0.245139    0.564565     0.005394
PD2408   PD        0.207023    0.282443    0.527138     0.005394
PD2409   PD        0.243601    0.242096    0.527917     0.005394
NI2410   NI        0.231612    0.259338    0.579737     0.004307
PD2411   PD        0.281183    0.244695    0.564979     0.005394
NI2412   NI        0.269501    0.282233    0.503403     0.004307
PD2413   PD        0.317764    0.242592    0.529853     0.005394
PD2414   PD        0.318242    0.280155    0.565664     0.005394
PD2415   PD        0.356899    0.242148    0.568974     0.005394
PD2416   PD        0.337994    0.276640    0.540451     0.005394
PD2417   PD        0.375863    0.217921    0.530011     0.005394
PD2418   PD        0.383544    0.290889    0.560477     0.005394
PD2419   PD        0.427376    0.243451    0.566987     0.005394
PD2420   PD        0.426404    0.267806    0.541294     0.005394
PD2421   PD        0.465478    0.240223    0.529245     0.005394
PD2422   PD        0.469944    0.277408    0.572206     0.005394
PD2423   PD        0.500673    0.237796    0.564770     0.005394
PD2424   PD        0.492203    0.260918    0.524272     0.005394
PD2425   PD        0.539292    0.237790    0.525613     0.005394
PD2426   PD        0.560743    0.291014    0.574908     0.005394
PD2427   PD        0.574259    0.229861    0.558309     0.005394
PD2428   PD        0.576944    0.273727    0.526584     0.005394
PD2429   PD        0.612732    0.234808    0.523139     0.005394
PD2430   PD        0.627160    0.275254    0.571014     0.005394
PD2431   PD        0.664984    0.238793    0.570574     0.005394
PD2432   PD        0.664932    0.276119    0.534005     0.005394
PD2433   PD        0.700775    0.236002    0.533555     0.005394
PD2434   PD        0.701758    0.272340    0.571001     0.005394
NI2435   NI        0.742694    0.239173    0.564181     0.004307
PD2436   PD        0.737443    0.274460    0.532486     0.005394
NI2437   NI        0.792236    0.245883    0.489035     0.004307
NI2438   NI        0.772451    0.274241    0.573044     0.004307
NI2439   NI        0.811803    0.241750    0.566002     0.004307
NI2440   NI        0.810500    0.276727    0.531844     0.004307
NI2441   NI        0.840674    0.246733    0.524382     0.004307
NI2442   NI        0.837543    0.283906    0.564855     0.004307
NI2443   NI        0.911562    0.283599    0.490329     0.004307
NI2444   NI        0.042029    0.334003    0.552059     0.004307
NI2445   NI        0.060037    0.353295    0.528799     0.004307
NI2446   NI        0.086837    0.313313    0.530620     0.004307
NI2447   NI        0.089552    0.341870    0.570920     0.004307
NI2448   NI        0.120076    0.301685    0.582491     0.004307
NI2449   NI        0.132547    0.346617    0.545754     0.004307
NI2450   NI        0.160301    0.301868    0.547679     0.004307
NI2451   NI        0.158381    0.344057    0.564936     0.004307
PD2452   PD        0.211345    0.320640    0.566288     0.005394
NI2453   NI        0.201600    0.360218    0.533922     0.004307
PD2454   PD        0.245924    0.319014    0.527665     0.005394
PD2455   PD        0.248427    0.353719    0.565308     0.005394
PD2456   PD        0.293770    0.326634    0.565613     0.005394
PD2457   PD        0.284013    0.355821    0.526945     0.005394
PD2458   PD        0.314299    0.314552    0.531111     0.005394
PD2459   PD        0.321222    0.355006    0.568520     0.005394
PD2460   PD        0.354514    0.313964    0.565959     0.005394
PD2461   PD        0.334468    0.340180    0.534009     0.005394
PD2462   PD        0.376265    0.311629    0.534568     0.005394
PD2463   PD        0.389263    0.342992    0.570728     0.005394
PD2464   PD        0.430170    0.317967    0.557565     0.005394
PD2465   PD        0.426927    0.365504    0.536994     0.005394
PD2466   PD        0.468432    0.309573    0.529771     0.005394
PD2467   PD        0.464812    0.355329    0.571204     0.005394
PD2468   PD        0.519814    0.317385    0.570939     0.005394
PD2469   PD        0.499988    0.344717    0.523273     0.005394
PD2470   PD        0.541258    0.311705    0.529540     0.005394
PD2471   PD        0.537301    0.351342    0.566234     0.005394
PD2472   PD        0.573458    0.317221    0.567401     0.005394
PD2473   PD        0.601853    0.358029    0.503471     0.005394
PD2474   PD        0.615647    0.325817    0.516699     0.005394
PD2475   PD        0.622592    0.357939    0.580430     0.005394
PD2476   PD        0.671599    0.312623    0.572673     0.005394
PD2477   PD        0.648588    0.351987    0.527600     0.005394
PD2478   PD        0.690674    0.322598    0.526675     0.005394
PD2479   PD        0.703584    0.351356    0.565863     0.005394
PD2480   PD        0.737189    0.311146    0.570124     0.005394
PD2481   PD        0.727957    0.359305    0.525230     0.005394
PD2482   PD        0.765166    0.319349    0.527026     0.005394
PD2483   PD        0.765510    0.353165    0.564620     0.005394
NI2484   NI        0.813990    0.301889    0.577537     0.004307
PD2485   PD        0.803160    0.356344    0.527912     0.005394
PD2486   PD        0.837322    0.319784    0.528384     0.005394
NI2487   NI        0.859267    0.339041    0.571300     0.004307
NI2488   NI        0.875383    0.320231    0.564006     0.004307
NI2489   NI        0.893986    0.360733    0.539908     0.004307
NI2490   NI        0.038513    0.397638    0.566870     0.004307
NI2491   NI        0.059507    0.425429    0.530637     0.004307
PD2492   PD        0.096872    0.389018    0.529004     0.005394
NI2493   NI        0.086149    0.416020    0.574408     0.004307
NI2494   NI        0.124925    0.378140    0.585686     0.004307
PD2495   PD        0.135602    0.423483    0.529169     0.005394
NI2496   NI        0.169709    0.376095    0.525331     0.004307
PD2497   PD        0.159003    0.460811    0.583596     0.005394
PD2498   PD        0.192202    0.399583    0.565021     0.005394
PD2499   PD        0.200073    0.440215    0.534111     0.005394
PD2500   PD        0.230569    0.385760    0.533843     0.005394
PD2501   PD        0.220403    0.442344    0.564550     0.005394
PD2502   PD        0.259743    0.393359    0.574816     0.005394
PD2503   PD        0.280246    0.429698    0.524976     0.005394
PD2504   PD        0.304419    0.388212    0.533881     0.005394
PD2505   PD        0.317375    0.419488    0.570277     0.005394
PD2506   PD        0.353754    0.381683    0.570917     0.005394
PD2507   PD        0.358078    0.420806    0.536344     0.005394
PD2508   PD        0.389281    0.383614    0.526997     0.005394
PD2509   PD        0.377698    0.440343    0.574056     0.005394
PD2510   PD        0.427636    0.383206    0.556543     0.005394
PD2511   PD        0.433754    0.409891    0.511565     0.005394
PD2512   PD        0.473903    0.387154    0.536147     0.005394
PD2513   PD        0.463924    0.417325    0.569213     0.005394
PD2514   PD        0.504354    0.389858    0.579034     0.005394
PD2515   PD        0.498254    0.431211    0.538962     0.005394
PD2516   PD        0.538715    0.391340    0.538188     0.005394
PD2517   PD        0.535249    0.430715    0.569749     0.005394
PD2518   PD        0.586483    0.413329    0.547322     0.005394
PD2519   PD        0.575451    0.427438    0.538276     0.005394
PD2520   PD        0.630953    0.388163    0.530466     0.005394
PD2521   PD        0.611682    0.452877    0.566704     0.005394
PD2522   PD        0.663853    0.384760    0.564626     0.005394
PD2523   PD        0.667664    0.425058    0.531392     0.005394
PD2524   PD        0.701049    0.383951    0.528303     0.005394
PD2525   PD        0.689008    0.431589    0.559258     0.005394
PD2526   PD        0.733845    0.387290    0.576430     0.005394
PD2527   PD        0.722868    0.429591    0.522969     0.005394
PD2528   PD        0.759176    0.386777    0.530855     0.005394
PD2529   PD        0.746395    0.423629    0.563694     0.005394
NI2530   NI        0.820219    0.403834    0.593388     0.004307
NI2531   NI        0.799536    0.415753    0.547383     0.004307
NI2532   NI        0.849333    0.409315    0.550007     0.004307
PD2533   PD        0.840640    0.431077    0.562133     0.005394
NI2534   NI        0.886228    0.378769    0.587916     0.004307
PD2535   PD        0.876780    0.431624    0.526397     0.005394
NI2536   NI        0.025191    0.464145    0.529019     0.004307
NI2537   NI        0.039464    0.439994    0.572355     0.004307
NI2538   NI        0.059609    0.517515    0.530845     0.004307
NI2539   NI        0.078013    0.469201    0.528440     0.004307
NI2540   NI        0.098407    0.500440    0.565634     0.004307
NI2541   NI        0.147400    0.487030    0.553480     0.004307
NI2542   NI        0.109803    0.510298    0.527985     0.004307
PD2543   PD        0.168925    0.463503    0.525774     0.005394
PD2544   PD        0.169413    0.500264    0.562612     0.005394
PD2545   PD        0.210148    0.465859    0.564624     0.005394
PD2546   PD        0.198200    0.506208    0.516627     0.005394
PD2547   PD        0.241431    0.491453    0.564819     0.005394
PD2548   PD        0.235672    0.508037    0.551970     0.005394
PD2549   PD        0.265397    0.465400    0.556707     0.005394
PD2550   PD        0.282146    0.524781    0.555470     0.005394
PD2551   PD        0.314280    0.466077    0.535347     0.005394
PD2552   PD        0.318432    0.514819    0.556428     0.005394
PD2553   PD        0.350783    0.457844    0.571374     0.005394
PD2554   PD        0.352662    0.507069    0.520406     0.005394
PD2555   PD        0.383252    0.468711    0.536467     0.005394
PD2556   PD        0.392827    0.508562    0.556141     0.005394
PD2557   PD        0.453142    0.460218    0.583818     0.005394
PD2558   PD        0.420650    0.501651    0.536422     0.005394
PD2559   PD        0.468971    0.459392    0.535686     0.005394
PD2560   PD        0.481376    0.501010    0.567986     0.005394
PD2561   PD        0.510765    0.476074    0.559186     0.005394
PD2562   PD        0.493174    0.502039    0.522358     0.005394
PD2563   PD        0.542305    0.472666    0.517292     0.005394
PD2564   PD        0.553356    0.496577    0.563535     0.005394
PD2565   PD        0.591486    0.461108    0.567069     0.005394
PD2566   PD        0.580009    0.515374    0.524473     0.005394
PD2567   PD        0.632101    0.462396    0.532701     0.005394
PD2568   PD        0.623774    0.493377    0.567546     0.005394
PD2569   PD        0.655016    0.470466    0.560229     0.005394
PD2570   PD        0.663278    0.508405    0.538955     0.005394
PD2571   PD        0.706154    0.474627    0.539039     0.005394
PD2572   PD        0.704100    0.503337    0.566599     0.005394
PD2573   PD        0.731306    0.469361    0.586254     0.005394
PD2574   PD        0.737807    0.515937    0.507857     0.005394
NI2575   NI        0.773792    0.455798    0.537334     0.004307
NI2576   NI        0.775194    0.527257    0.557867     0.004307
NI2577   NI        0.790880    0.487070    0.573033     0.004307
PD2578   PD        0.803823    0.504776    0.523035     0.005394
NI2579   NI        0.856962    0.449210    0.535775     0.004307
PD2580   PD        0.839862    0.503459    0.561937     0.005394
NI2581   NI        0.875944    0.466152    0.565997     0.004307
NI2582   NI        0.892440    0.503112    0.539553     0.004307
NI2583   NI        0.906634    0.457731    0.524444     0.004307
NI2584   NI        0.033998    0.532306    0.573738     0.004307
NI2585   NI        0.061481    0.576407    0.529068     0.004307
NI2586   NI        0.072139    0.542572    0.518196     0.004307
NI2587   NI        0.087930    0.601984    0.566836     0.004307
NI2588   NI        0.127587    0.527322    0.578083     0.004307
NI2589   NI        0.150298    0.584283    0.533330     0.004307
PD2590   PD        0.157747    0.544745    0.541743     0.005394
PD2591   PD        0.163456    0.583253    0.576673     0.005394
PD2592   PD        0.195434    0.541659    0.578434     0.005394
PD2593   PD        0.211027    0.597813    0.513213     0.005394
PD2594   PD        0.241774    0.536529    0.524737     0.005394
PD2595   PD        0.240446    0.580884    0.552065     0.005394
PD2596   PD        0.274541    0.541728    0.552288     0.005394
PD2597   PD        0.281969    0.589361    0.523667     0.005394
PD2598   PD        0.312971    0.544903    0.514556     0.005394
PD2599   PD        0.307346    0.577884    0.573901     0.005394
PD2600   PD        0.363506    0.538108    0.558094     0.005394
PD2601   PD        0.365694    0.586855    0.528432     0.005394
PD2602   PD        0.400624    0.548764    0.522118     0.005394
PD2603   PD        0.382782    0.576549    0.572789     0.005394
PD2604   PD        0.422728    0.549531    0.554496     0.005394
PD2605   PD        0.437837    0.586291    0.528835     0.005394
PD2606   PD        0.457840    0.539778    0.541621     0.005394
PD2607   PD        0.456435    0.580120    0.576012     0.005394
PD2608   PD        0.492766    0.550911    0.567552     0.005394
PD2609   PD        0.489107    0.586588    0.540082     0.005394
PD2610   PD        0.538097    0.559045    0.522176     0.005394
PD2611   PD        0.532121    0.573457    0.569284     0.005394
PD2612   PD        0.566938    0.546647    0.564061     0.005394
PD2613   PD        0.590479    0.565759    0.518660     0.005394
PD2614   PD        0.625828    0.536262    0.538575     0.005394
PD2615   PD        0.607427    0.572068    0.568235     0.005394
PD2616   PD        0.660819    0.530605    0.557100     0.005394
PD2617   PD        0.676523    0.557760    0.542478     0.005394
PD2618   PD        0.675310    0.530722    0.531268     0.005394
PD2619   PD        0.685501    0.611294    0.577657     0.005394
PD2620   PD        0.723638    0.536322    0.552942     0.005394
PD2621   PD        0.728956    0.565821    0.511171     0.005394
PD2622   PD        0.764674    0.539851    0.521939     0.005394
NI2623   NI        0.765857    0.586925    0.574119     0.004307
NI2624   NI        0.808215    0.562053    0.575752     0.004307
PD2625   PD        0.805280    0.574939    0.523948     0.005394
NI2626   NI        0.846067    0.539881    0.522023     0.004307
NI2627   NI        0.838641    0.574346    0.562225     0.004307
NI2628   NI        0.877155    0.560084    0.575239     0.004307
NI2629   NI        0.881133    0.577193    0.522520     0.004307
NI2630   NI        0.055656    0.611675    0.567109     0.004307
NI2631   NI        0.057612    0.657314    0.541573     0.004307
NI2632   NI        0.072305    0.612054    0.517973     0.004307
NI2633   NI        0.065516    0.613658    0.564182     0.004307
NI2634   NI        0.124461    0.617093    0.577648     0.004307
NI2635   NI        0.128757    0.655626    0.538969     0.004307
NI2636   NI        0.164323    0.622259    0.524157     0.004307
PD2637   PD        0.166637    0.649633    0.571673     0.005394
PD2638   PD        0.205505    0.610836    0.563229     0.005394
PD2639   PD        0.201526    0.655991    0.538079     0.005394
PD2640   PD        0.242656    0.624039    0.529928     0.005394
PD2641   PD        0.253633    0.664543    0.560861     0.005394
PD2642   PD        0.271035    0.612506    0.573521     0.005394
PD2643   PD        0.275839    0.654674    0.540956     0.005394
PD2644   PD        0.303377    0.610567    0.535185     0.005394
PD2645   PD        0.314081    0.668087    0.556513     0.005394
PD2646   PD        0.345786    0.613253    0.571386     0.005394
PD2647   PD        0.350446    0.658098    0.516613     0.005394
PD2648   PD        0.389155    0.631768    0.524929     0.005394
PD2649   PD        0.383858    0.648874    0.573043     0.005394
PD2650   PD        0.433114    0.628071    0.572655     0.005394
PD2651   PD        0.433150    0.660251    0.537382     0.005394
PD2652   PD        0.464114    0.630883    0.531167     0.005394
PD2653   PD        0.469819    0.669835    0.573446     0.005394
PD2654   PD        0.502149    0.610256    0.559670     0.005394
PD2655   PD        0.499654    0.657000    0.502195     0.005394
PD2656   PD        0.541372    0.612188    0.521707     0.005394
PD2657   PD        0.542771    0.673799    0.575450     0.005394
PD2658   PD        0.586142    0.618435    0.555015     0.005394
PD2659   PD        0.576211    0.656422    0.542049     0.005394
PD2660   PD        0.623128    0.605573    0.530973     0.005394
PD2661   PD        0.615479    0.665368    0.570645     0.005394
PD2662   PD        0.653088    0.602129    0.548878     0.005394
PD2663   PD        0.649707    0.650417    0.535520     0.005394
PD2664   PD        0.696147    0.629541    0.532160     0.005394
PD2665   PD        0.686445    0.660711    0.572180     0.005394
PD2666   PD        0.734651    0.613102    0.561574     0.005394
PD2667   PD        0.733762    0.652072    0.525215     0.005394
NI2668   NI        0.785759    0.636267    0.519051     0.004307
NI2669   NI        0.771722    0.648307    0.562299     0.004307
NI2670   NI        0.806403    0.613205    0.561594     0.004307
NI2671   NI        0.819731    0.659690    0.544026     0.004307
NI2672   NI        0.860413    0.604471    0.525196     0.004307
NI2673   NI        0.859837    0.667535    0.576274     0.004307
NI2674   NI        0.904402    0.619199    0.525912     0.004307
NI2675   NI        0.868017    0.668340    0.526089     0.004307
NI2676   NI        0.099803    0.683874    0.530339     0.004307
NI2677   NI        0.116175    0.666818    0.565418     0.004307
NI2678   NI        0.131855    0.721946    0.531717     0.004307
NI2679   NI        0.167918    0.690205    0.514224     0.004307
NI2680   NI        0.162163    0.697089    0.570898     0.004307
NI2681   NI        0.207552    0.685686    0.568553     0.004307
NI2682   NI        0.202923    0.720455    0.525524     0.004307
PD2683   PD        0.248016    0.685893    0.535069     0.005394
NI2684   NI        0.237692    0.754040    0.590865     0.004307
PD2685   PD        0.275776    0.701079    0.566285     0.005394
NI2686   NI        0.292832    0.693765    0.540714     0.004307
PD2687   PD        0.313830    0.687897    0.535394     0.005394
PD2688   PD        0.316506    0.724439    0.573069     0.005394
PD2689   PD        0.362125    0.677701    0.564367     0.005394
NI2690   NI        0.343539    0.727626    0.521943     0.004307
PD2691   PD        0.382401    0.706340    0.530809     0.005394
PD2692   PD        0.386806    0.724276    0.573569     0.005394
PD2693   PD        0.424913    0.679930    0.566752     0.005394
PD2694   PD        0.426127    0.710125    0.509603     0.005394
PD2695   PD        0.468824    0.704835    0.537223     0.005394
PD2696   PD        0.490381    0.731661    0.579288     0.005394
PD2697   PD        0.514028    0.686072    0.567133     0.005394
PD2698   PD        0.507518    0.721726    0.508259     0.005394
PD2699   PD        0.537310    0.684043    0.526406     0.005394
PD2700   PD        0.540652    0.724238    0.588237     0.005394
PD2701   PD        0.569143    0.688112    0.563708     0.005394
NI2702   NI        0.588206    0.734795    0.548167     0.004307
PD2703   PD        0.622229    0.701683    0.533029     0.005394
NI2704   NI        0.618457    0.736885    0.570974     0.004307
PD2705   PD        0.657072    0.702633    0.570516     0.005394
NI2706   NI        0.657078    0.740439    0.534676     0.004307
PD2707   PD        0.697929    0.685640    0.527201     0.005394
NI2708   NI        0.693194    0.743352    0.574236     0.004307
PD2709   PD        0.734311    0.683845    0.564242     0.005394
PD2710   PD        0.734042    0.723532    0.527767     0.005394
NI2711   NI        0.760369    0.683845    0.527829     0.004307
NI2712   NI        0.768749    0.723992    0.565152     0.004307
NI2713   NI        0.797133    0.688395    0.581621     0.004307
NI2714   NI        0.804493    0.727347    0.527946     0.004307
NI2715   NI        0.847093    0.701101    0.529946     0.004307
NI2716   NI        0.171953    0.758031    0.528428     0.004307
NI2717   NI        0.211521    0.762010    0.562204     0.004307
NI2718   NI        0.168691    0.806305    0.528220     0.004307
NI2719   NI        0.260980    0.753872    0.546004     0.004307
NI2720   NI        0.247883    0.795170    0.564228     0.004307
PD2721   PD        0.279431    0.760724    0.571152     0.005394
NI2722   NI        0.285910    0.793394    0.527084     0.004307
NI2723   NI        0.287347    0.766877    0.548985     0.004307
NI2724   NI        0.296550    0.785354    0.545574     0.004307
PD2725   PD        0.349330    0.758070    0.564935     0.005394
PD2726   PD        0.357941    0.812712    0.528619     0.005394
NI2727   NI        0.385531    0.767865    0.530305     0.004307
PD2728   PD        0.394757    0.812794    0.565847     0.005394
NI2729   NI        0.435152    0.769452    0.559359     0.004307
PD2730   PD        0.431019    0.812178    0.528687     0.005394
PD2731   PD        0.462226    0.772166    0.530066     0.005394
PD2732   PD        0.467314    0.809074    0.566711     0.005394
PD2733   PD        0.501088    0.756459    0.568827     0.005394
PD2734   PD        0.501952    0.806176    0.528838     0.005394
NI2735   NI        0.549698    0.775760    0.519111     0.004307
NI2736   NI        0.543710    0.810762    0.566652     0.004307
NI2737   NI        0.574873    0.781651    0.557334     0.004307
NI2738   NI        0.590476    0.819533    0.526576     0.004307
NI2739   NI        0.620429    0.777465    0.533069     0.004307
NI2740   NI        0.615284    0.811117    0.572115     0.004307
NI2741   NI        0.653021    0.776771    0.573490     0.004307
NI2742   NI        0.637855    0.799390    0.527131     0.004307
NI2743   NI        0.681008    0.779234    0.522738     0.004307
NI2744   NI        0.686963    0.793751    0.564644     0.004307
NI2745   NI        0.727113    0.782915    0.577605     0.004307
NI2746   NI        0.724126    0.793168    0.529115     0.004307
NI2747   NI        0.761645    0.759625    0.527153     0.004307
NI2748   NI        0.235539    0.839561    0.539200     0.004307
NI2749   NI        0.281187    0.829899    0.563933     0.004307
NI2750   NI        0.258113    0.855373    0.523232     0.004307
NI2751   NI        0.319197    0.828527    0.519253     0.004307
NI2752   NI        0.310572    0.867222    0.583397     0.004307
NI2753   NI        0.357363    0.849812    0.565674     0.004307
NI2754   NI        0.357668    0.886338    0.527952     0.004307
PD2755   PD        0.393756    0.849135    0.529389     0.005394
NI2756   NI        0.395327    0.888366    0.563568     0.004307
NI2757   NI        0.413212    0.859259    0.557695     0.004307
NI2758   NI        0.431901    0.884138    0.528063     0.004307
PD2759   PD        0.469111    0.847805    0.529237     0.005394
NI2760   NI        0.442899    0.886789    0.554832     0.004307
PD2761   PD        0.506054    0.841979    0.565581     0.005394
NI2762   NI        0.506666    0.880470    0.528844     0.004307
PD2763   PD        0.541590    0.839454    0.527961     0.005394
NI2764   NI        0.543946    0.873715    0.563257     0.004307
NI2765   NI        0.577198    0.840825    0.566712     0.004307
NI2766   NI        0.609480    0.891757    0.537486     0.004307
NI2767   NI        0.623944    0.848713    0.518746     0.004307
NI2768   NI        0.618848    0.870635    0.563274     0.004307
NI2769   NI        0.651116    0.830289    0.563664     0.004307
NI2770   NI        0.650397    0.863683    0.522740     0.004307
NI2771   NI        0.688967    0.829911    0.529429     0.004307
NI2772   NI        0.473833    0.920909    0.527761     0.004307
NI2773   NI        0.357349    0.059103    0.603259     0.004307
NI2774   NI        0.400379    0.035532    0.623571     0.004307
NI2775   NI        0.429217    0.060176    0.602906     0.004307
NI2776   NI        0.465865    0.055405    0.637964     0.004307
NI2777   NI        0.503733    0.057564    0.603027     0.004307
NI2778   NI        0.545144    0.064730    0.635916     0.004307
NI2779   NI        0.581223    0.064624    0.598890     0.004307
NI2780   NI        0.179018    0.149900    0.614788     0.004307
NI2781   NI        0.247213    0.119570    0.631796     0.004307
NI2782   NI        0.280801    0.100915    0.626018     0.004307
NI2783   NI        0.293356    0.121724    0.607249     0.004307
NI2784   NI        0.314838    0.062316    0.632008     0.004307
NI2785   NI        0.318963    0.134272    0.639343     0.004307
NI2786   NI        0.355005    0.095756    0.640696     0.004307
NI2787   NI        0.333284    0.128809    0.614462     0.004307
NI2788   NI        0.411998    0.080832    0.596155     0.004307
NI2789   NI        0.410046    0.095196    0.650358     0.004307
NI2790   NI        0.408152    0.070298    0.647330     0.004307
PD2791   PD        0.428292    0.130280    0.604528     0.005394
NI2792   NI        0.467111    0.093079    0.606675     0.004307
PD2793   PD        0.470292    0.136123    0.636122     0.005394
NI2794   NI        0.501288    0.093076    0.640054     0.004307
NI2795   NI        0.509156    0.138243    0.602093     0.004307
NI2796   NI        0.538936    0.093417    0.601596     0.004307
NI2797   NI        0.541912    0.137913    0.637043     0.004307
NI2798   NI        0.580642    0.098862    0.639692     0.004307
NI2799   NI        0.601021    0.116431    0.590624     0.004307
NI2800   NI        0.627428    0.087570    0.591440     0.004307
NI2801   NI        0.615825    0.137796    0.636127     0.004307
NI2802   NI        0.687524    0.074128    0.644743     0.004307
NI2803   NI        0.651216    0.135582    0.601929     0.004307
NI2804   NI        0.685965    0.125007    0.643522     0.004307
NI2805   NI        0.730384    0.144294    0.587886     0.004307
NI2806   NI        0.138867    0.203829    0.598612     0.004307
NI2807   NI        0.151601    0.149752    0.612162     0.004307
NI2808   NI        0.172304    0.207392    0.637726     0.004307
NI2809   NI        0.209635    0.168347    0.643787     0.004307
NI2810   NI        0.209532    0.208447    0.603915     0.004307
NI2811   NI        0.238179    0.168936    0.626752     0.004307
PD2812   PD        0.247249    0.207349    0.637840     0.005394
PD2813   PD        0.283244    0.170506    0.641902     0.005394
PD2814   PD        0.281528    0.205795    0.601107     0.005394
NI2815   NI        0.341221    0.138990    0.605664     0.004307
NI2816   NI        0.317743    0.203281    0.640729     0.004307
NI2817   NI        0.319987    0.146504    0.643223     0.004307
PD2818   PD        0.354941    0.207034    0.603769     0.005394
PD2819   PD        0.395226    0.170718    0.602274     0.005394
PD2820   PD        0.392685    0.206063    0.639644     0.005394
PD2821   PD        0.429834    0.168968    0.638514     0.005394
PD2822   PD        0.427689    0.206684    0.602746     0.005394
PD2823   PD        0.463026    0.169286    0.613375     0.005394
PD2824   PD        0.444067    0.202031    0.651385     0.005394
PD2825   PD        0.505329    0.173936    0.641417     0.005394
PD2826   PD        0.503605    0.202515    0.601411     0.005394
NI2827   NI        0.540119    0.164584    0.600327     0.004307
NI2828   NI        0.552537    0.209968    0.652446     0.004307
PD2829   PD        0.579553    0.173220    0.641529     0.005394
PD2830   PD        0.576241    0.193022    0.594374     0.005394
NI2831   NI        0.595428    0.151761    0.615968     0.004307
PD2832   PD        0.613571    0.197322    0.632760     0.005394
NI2833   NI        0.648996    0.174649    0.638550     0.004307
NI2834   NI        0.662429    0.209258    0.623408     0.004307
NI2835   NI        0.686977    0.166250    0.604128     0.004307
NI2836   NI        0.705001    0.203133    0.644397     0.004307
NI2837   NI        0.726282    0.156072    0.636996     0.004307
NI2838   NI        0.721756    0.210466    0.601448     0.004307
NI2839   NI        0.758662    0.181370    0.574625     0.004307
NI2840   NI        0.778499    0.198937    0.671018     0.004307
NI2841   NI        0.814593    0.207693    0.604995     0.004307
NI2842   NI        0.078013    0.302666    0.641700     0.004307
NI2843   NI        0.135630    0.246053    0.639724     0.004307
NI2844   NI        0.134323    0.280161    0.600234     0.004307
NI2845   NI        0.162155    0.237250    0.628663     0.004307
NI2846   NI        0.167217    0.285717    0.637198     0.004307
PD2847   PD        0.208623    0.244671    0.638455     0.005394
NI2848   NI        0.175311    0.256523    0.601867     0.004307
PD2849   PD        0.244129    0.239346    0.601619     0.005394
PD2850   PD        0.245026    0.279389    0.638914     0.005394
PD2851   PD        0.280898    0.242565    0.640126     0.005394
PD2852   PD        0.283454    0.281114    0.599760     0.005394
PD2853   PD        0.318738    0.242352    0.603294     0.005394
PD2854   PD        0.320004    0.276125    0.644833     0.005394
PD2855   PD        0.355972    0.239797    0.641927     0.005394
PD2856   PD        0.350400    0.276519    0.605901     0.005394
PD2857   PD        0.392278    0.242787    0.605860     0.005394
PD2858   PD        0.390979    0.280001    0.641413     0.005394
PD2859   PD        0.428800    0.240831    0.641726     0.005394
PD2860   PD        0.430210    0.278629    0.605282     0.005394
PD2861   PD        0.459145    0.236778    0.617592     0.005394
PD2862   PD        0.468454    0.282705    0.640162     0.005394
PD2863   PD        0.505697    0.227765    0.639493     0.005394
PD2864   PD        0.496836    0.264624    0.612984     0.005394
PD2865   PD        0.539299    0.240564    0.598437     0.005394
PD2866   PD        0.542213    0.280752    0.645423     0.005394
PD2867   PD        0.580642    0.246059    0.648101     0.005394
PD2868   PD        0.538992    0.248674    0.593440     0.005394
PD2869   PD        0.626280    0.242739    0.612129     0.005394
NI2870   NI        0.604063    0.254807    0.656154     0.004307
NI2871   NI        0.645797    0.236119    0.632331     0.004307
PD2872   PD        0.664231    0.275074    0.606631     0.005394
NI2873   NI        0.701558    0.237539    0.607350     0.004307
NI2874   NI        0.694469    0.279933    0.657617     0.004307
NI2875   NI        0.756098    0.243166    0.656601     0.004307
NI2876   NI        0.749748    0.273048    0.602710     0.004307
NI2877   NI        0.776563    0.240949    0.603503     0.004307
NI2878   NI        0.757743    0.278425    0.635659     0.004307
NI2879   NI        0.814707    0.241385    0.639245     0.004307
NI2880   NI        0.808008    0.281071    0.600750     0.004307
NI2881   NI        0.846406    0.284675    0.640036     0.004307
NI2882   NI        0.046137    0.349680    0.600411     0.004307
NI2883   NI        0.088153    0.322922    0.619629     0.004307
NI2884   NI        0.087835    0.353525    0.629588     0.004307
NI2885   NI        0.131165    0.323455    0.628580     0.004307
NI2886   NI        0.117430    0.354020    0.593381     0.004307
PD2887   PD        0.172245    0.321344    0.601816     0.005394
PD2888   PD        0.172641    0.352647    0.638137     0.005394
NI2889   NI        0.192658    0.323912    0.648355     0.004307
NI2890   NI        0.190199    0.349503    0.605427     0.004307
PD2891   PD        0.231083    0.320856    0.613839     0.005394
PD2892   PD        0.236631    0.368752    0.614981     0.005394
PD2893   PD        0.279317    0.316727    0.640613     0.005394
PD2894   PD        0.273237    0.348516    0.626931     0.005394
PD2895   PD        0.318969    0.316951    0.603778     0.005394
PD2896   PD        0.319516    0.353551    0.643109     0.005394
PD2897   PD        0.354629    0.316617    0.642141     0.005394
PD2898   PD        0.355374    0.350192    0.604816     0.005394
PD2899   PD        0.389377    0.308915    0.609613     0.005394
PD2900   PD        0.394133    0.353195    0.644632     0.005394
PD2901   PD        0.432079    0.315884    0.643774     0.005394
PD2902   PD        0.418810    0.367754    0.604215     0.005394
PD2903   PD        0.463050    0.301837    0.616184     0.005394
PD2904   PD        0.468136    0.353553    0.643994     0.005394
PD2905   PD        0.523379    0.318032    0.653836     0.005394
PD2906   PD        0.500039    0.346224    0.604648     0.005394
PD2907   PD        0.549925    0.335578    0.597686     0.005394
PD2908   PD        0.544426    0.371114    0.657306     0.005394
PD2909   PD        0.573750    0.319297    0.644152     0.005394
PD2910   PD        0.588638    0.345257    0.599122     0.005394
PD2911   PD        0.630510    0.314623    0.605825     0.005394
PD2912   PD        0.617062    0.359322    0.652230     0.005394
PD2913   PD        0.662473    0.309858    0.646098     0.005394
PD2914   PD        0.622443    0.384858    0.608363     0.005394
PD2915   PD        0.688255    0.314148    0.618672     0.005394
PD2916   PD        0.688905    0.362972    0.638617     0.005394
NI2917   NI        0.733605    0.321352    0.639143     0.004307
PD2918   PD        0.728568    0.346894    0.606151     0.005394
PD2919   PD        0.771353    0.317393    0.602859     0.005394
NI2920   NI        0.771370    0.348100    0.645032     0.004307
NI2921   NI        0.790564    0.327510    0.642235     0.004307
PD2922   PD        0.797324    0.361027    0.601530     0.005394
NI2923   NI        0.839787    0.320490    0.601638     0.004307
NI2924   NI        0.833641    0.358345    0.639150     0.004307
NI2925   NI        0.878544    0.358259    0.597467     0.004307
NI2926   NI        0.039610    0.374782    0.631538     0.004307
NI2927   NI        0.060550    0.429075    0.600797     0.004307
NI2928   NI        0.098545    0.377274    0.604672     0.004307
NI2929   NI        0.094458    0.430907    0.642526     0.004307
PD2930   PD        0.136174    0.388705    0.636040     0.005394
PD2931   PD        0.136087    0.425864    0.603461     0.005394
NI2932   NI        0.164072    0.377329    0.591037     0.004307
NI2933   NI        0.150789    0.443370    0.628560     0.004307
NI2934   NI        0.199015    0.386020    0.630948     0.004307
PD2935   PD        0.199376    0.434964    0.611804     0.005394
PD2936   PD        0.252740    0.389924    0.600403     0.005394
PD2937   PD        0.238544    0.433708    0.646043     0.005394
NI2938   NI        0.267046    0.375003    0.648687     0.004307
PD2939   PD        0.266866    0.436195    0.601243     0.005394
PD2940   PD        0.317228    0.383645    0.607411     0.005394
PD2941   PD        0.329319    0.439728    0.633243     0.005394
PD2942   PD        0.356915    0.385728    0.643493     0.005394
PD2943   PD        0.352231    0.419788    0.606083     0.005394
PD2944   PD        0.390793    0.391231    0.613262     0.005394
PD2945   PD        0.391000    0.430568    0.642556     0.005394
PD2946   PD        0.428411    0.395103    0.643756     0.005394
PD2947   PD        0.427857    0.426802    0.606435     0.005394
PD2948   PD        0.464772    0.390824    0.608324     0.005394
PD2949   PD        0.462678    0.433622    0.647084     0.005394
PD2950   PD        0.514955    0.368994    0.647942     0.005394
PD2951   PD        0.501654    0.431620    0.608652     0.005394
PD2952   PD        0.540975    0.394878    0.611263     0.005394
PD2953   PD        0.554124    0.434117    0.639292     0.005394
PD2954   PD        0.576689    0.382815    0.632724     0.005394
PD2955   PD        0.587690    0.420127    0.599050     0.005394
PD2956   PD        0.617775    0.381337    0.588051     0.005394
PD2957   PD        0.619582    0.425474    0.639836     0.005394
PD2958   PD        0.657054    0.395764    0.634932     0.005394
PD2959   PD        0.648464    0.442032    0.599199     0.005394
PD2960   PD        0.704205    0.403012    0.615737     0.005394
PD2961   PD        0.678763    0.447667    0.646060     0.005394
PD2962   PD        0.739467    0.381775    0.645333     0.005394
PD2963   PD        0.731596    0.432700    0.601015     0.005394
PD2964   PD        0.760605    0.389707    0.599085     0.005394
NI2965   NI        0.780386    0.448122    0.628581     0.004307
NI2966   NI        0.827060    0.394007    0.645111     0.004307
NI2967   NI        0.807368    0.423879    0.606817     0.004307
NI2968   NI        0.834239    0.398813    0.602333     0.004307
NI2969   NI        0.844005    0.421758    0.654011     0.004307
NI2970   NI        0.881372    0.356701    0.639915     0.004307
NI2971   NI        0.868802    0.428145    0.600812     0.004307
NI2972   NI        0.061924    0.463829    0.636843     0.004307
NI2973   NI        0.061047    0.502827    0.602602     0.004307
NI2974   NI        0.098978    0.465870    0.601514     0.004307
NI2975   NI        0.098882    0.498450    0.638442     0.004307
PD2976   PD        0.134481    0.464107    0.638235     0.005394
PD2977   PD        0.134666    0.501673    0.602166     0.005394
NI2978   NI        0.153623    0.456975    0.622596     0.004307
PD2979   PD        0.169230    0.503463    0.643175     0.005394
PD2980   PD        0.199858    0.473034    0.643599     0.005394
PD2981   PD        0.212774    0.503635    0.604615     0.005394
PD2982   PD        0.244863    0.460263    0.605076     0.005394
PD2983   PD        0.239074    0.506415    0.648237     0.005394
PD2984   PD        0.282694    0.461360    0.643105     0.005394
PD2985   PD        0.273947    0.504065    0.613939     0.005394
PD2986   PD        0.315195    0.456648    0.606559     0.005394
PD2987   PD        0.316052    0.503394    0.646775     0.005394
PD2988   PD        0.352601    0.467906    0.646628     0.005394
PD2989   PD        0.348707    0.505429    0.610922     0.005394
PD2990   PD        0.386773    0.467610    0.607221     0.005394
PD2991   PD        0.389465    0.493603    0.642148     0.005394
PD2992   PD        0.425899    0.468519    0.645744     0.005394
PD2993   PD        0.433646    0.509102    0.586845     0.005394
PD2994   PD        0.474637    0.470288    0.596359     0.005394
PD2995   PD        0.462959    0.504107    0.645675     0.005394
PD2996   PD        0.500944    0.468944    0.647890     0.005394
PD2997   PD        0.503436    0.502524    0.611467     0.005394
PD2998   PD        0.553568    0.483016    0.615247     0.005394
PD2999   PD        0.539220    0.505452    0.648555     0.005394
PD3000   PD        0.593184    0.468987    0.656158     0.005394
PD3001   PD        0.592210    0.515809    0.597459     0.005394
PD3002   PD        0.605209    0.467596    0.615915     0.005394
PD3003   PD        0.630054    0.521080    0.640656     0.005394
PD3004   PD        0.647596    0.466677    0.646397     0.005394
PD3005   PD        0.673559    0.527931    0.607328     0.005394
PD3006   PD        0.682049    0.477333    0.605413     0.005394
PD3007   PD        0.700875    0.503470    0.642449     0.005394
PD3008   PD        0.730775    0.462716    0.641920     0.005394
PD3009   PD        0.741811    0.519877    0.594548     0.005394
PD3010   PD        0.774109    0.460423    0.614637     0.005394
PD3011   PD        0.772429    0.493531    0.654046     0.005394
NI3012   NI        0.804956    0.483050    0.661005     0.004307
NI3013   NI        0.831764    0.536311    0.600350     0.004307
NI3014   NI        0.856189    0.446671    0.611521     0.004307
NI3015   NI        0.845562    0.509279    0.642920     0.004307
NI3016   NI        0.877123    0.470194    0.637164     0.004307
NI3017   NI        0.865232    0.496986    0.605877     0.004307
NI3018   NI        0.048501    0.581014    0.650011     0.004307
NI3019   NI        0.060810    0.576956    0.601691     0.004307
NI3020   NI        0.097021    0.538012    0.604467     0.004307
NI3021   NI        0.089734    0.586470    0.655784     0.004307
NI3022   NI        0.128237    0.542248    0.652434     0.004307
NI3023   NI        0.124872    0.581906    0.615854     0.004307
PD3024   PD        0.163077    0.545301    0.614202     0.005394
PD3025   PD        0.162917    0.582307    0.652270     0.005394
PD3026   PD        0.198699    0.546599    0.650625     0.005394
PD3027   PD        0.198029    0.580593    0.614636     0.005394
PD3028   PD        0.235474    0.543866    0.614282     0.005394
PD3029   PD        0.237917    0.578809    0.649616     0.005394
PD3030   PD        0.276167    0.540591    0.645170     0.005394
PD3031   PD        0.271294    0.577644    0.612892     0.005394
PD3032   PD        0.318809    0.534224    0.603578     0.005394
PD3033   PD        0.310406    0.577834    0.648311     0.005394
PD3034   PD        0.364448    0.534630    0.657051     0.005394
PD3035   PD        0.348189    0.579004    0.609406     0.005394
PD3036   PD        0.399283    0.511337    0.625714     0.005394
PD3037   PD        0.389919    0.574636    0.634983     0.005394
PD3038   PD        0.424972    0.538292    0.646807     0.005394
PD3039   PD        0.423421    0.596956    0.600596     0.005394
PD3040   PD        0.459365    0.540221    0.607964     0.005394
PD3041   PD        0.473461    0.567838    0.664598     0.005394
PD3042   PD        0.497459    0.540793    0.646483     0.005394
PD3043   PD        0.521213    0.587737    0.590234     0.005394
PD3044   PD        0.533423    0.541571    0.609402     0.005394
PD3045   PD        0.545860    0.596058    0.632014     0.005394
PD3046   PD        0.571367    0.552383    0.629760     0.005394
PD3047   PD        0.569933    0.576777    0.604211     0.005394
PD3048   PD        0.606566    0.555343    0.608245     0.005394
PD3049   PD        0.621994    0.599346    0.634752     0.005394
PD3050   PD        0.673635    0.549507    0.645533     0.005394
PD3051   PD        0.647217    0.581509    0.593899     0.005394
PD3052   PD        0.694434    0.541589    0.596356     0.005394
PD3053   PD        0.683091    0.569293    0.639018     0.005394
PD3054   PD        0.739108    0.534775    0.644530     0.005394
PD3055   PD        0.721205    0.574200    0.594530     0.005394
PD3056   PD        0.746449    0.542605    0.594924     0.005394
NI3057   NI        0.757364    0.606384    0.651103     0.004307
NI3058   NI        0.802153    0.534163    0.659219     0.004307
NI3059   NI        0.793020    0.571611    0.598925     0.004307
NI3060   NI        0.831092    0.557230    0.625495     0.004307
NI3061   NI        0.845841    0.585221    0.655582     0.004307
NI3062   NI        0.903802    0.502902    0.639585     0.004307
NI3063   NI        0.861312    0.577816    0.595146     0.004307
NI3064   NI        0.077993    0.619386    0.637366     0.004307
NI3065   NI        0.101576    0.650132    0.635892     0.004307
NI3066   NI        0.128568    0.621088    0.651782     0.004307
NI3067   NI        0.150846    0.665529    0.613000     0.004307
PD3068   PD        0.163153    0.618174    0.613778     0.005394
NI3069   NI        0.177142    0.664513    0.658770     0.004307
PD3070   PD        0.199892    0.617462    0.650064     0.005394
PD3071   PD        0.201181    0.652364    0.612730     0.005394
PD3072   PD        0.237004    0.615877    0.612606     0.005394
PD3073   PD        0.239901    0.653678    0.648967     0.005394
PD3074   PD        0.275236    0.616570    0.648544     0.005394
PD3075   PD        0.274234    0.650383    0.609167     0.005394
PD3076   PD        0.324185    0.620657    0.595229     0.005394
PD3077   PD        0.313520    0.650863    0.645005     0.005394
PD3078   PD        0.348448    0.611871    0.644739     0.005394
PD3079   PD        0.356793    0.655601    0.616579     0.005394
PD3080   PD        0.389479    0.602720    0.592247     0.005394
PD3081   PD        0.400811    0.656808    0.638498     0.005394
PD3082   PD        0.422765    0.611725    0.645733     0.005394
PD3083   PD        0.421262    0.649437    0.608215     0.005394
PD3084   PD        0.461237    0.613999    0.609708     0.005394
PD3085   PD        0.458804    0.651839    0.644639     0.005394
PD3086   PD        0.497727    0.614541    0.646170     0.005394
PD3087   PD        0.485957    0.656557    0.613735     0.005394
PD3088   PD        0.549830    0.631274    0.590558     0.005394
PD3089   PD        0.532637    0.645607    0.634364     0.005394
PD3090   PD        0.573135    0.618338    0.635540     0.005394
PD3091   PD        0.582758    0.665384    0.608045     0.005394
PD3092   PD        0.640079    0.628538    0.599169     0.005394
PD3093   PD        0.629196    0.657566    0.640292     0.005394
PD3094   PD        0.648687    0.609804    0.636670     0.005394
NI3095   NI        0.663059    0.667260    0.606089     0.004307
PD3096   PD        0.685336    0.613740    0.587410     0.005394
NI3097   NI        0.718738    0.649021    0.661305     0.004307
NI3098   NI        0.764654    0.621837    0.655204     0.004307
NI3099   NI        0.756868    0.609205    0.598879     0.004307
NI3100   NI        0.784193    0.622223    0.607666     0.004307
NI3101   NI        0.754504    0.649076    0.634741     0.004307
NI3102   NI        0.812700    0.622154    0.651528     0.004307
NI3103   NI        0.814294    0.641480    0.592928     0.004307
NI3104   NI        0.861898    0.628327    0.605399     0.004307
NI3105   NI        0.833446    0.635461    0.644932     0.004307
NI3106   NI        0.129116    0.693348    0.650298     0.004307
NI3107   NI        0.124050    0.751111    0.601531     0.004307
NI3108   NI        0.177330    0.685898    0.605631     0.004307
NI3109   NI        0.169416    0.722693    0.637679     0.004307
NI3110   NI        0.190836    0.707393    0.628716     0.004307
NI3111   NI        0.197013    0.725233    0.595033     0.004307
PD3112   PD        0.244818    0.688511    0.608125     0.005394
PD3113   PD        0.241708    0.727091    0.645651     0.005394
PD3114   PD        0.279021    0.688967    0.646318     0.005394
PD3115   PD        0.277432    0.727458    0.611485     0.005394
NI3116   NI        0.317836    0.702173    0.595778     0.004307
NI3117   NI        0.313320    0.744906    0.644797     0.004307
NI3118   NI        0.329912    0.699313    0.632032     0.004307
PD3119   PD        0.352765    0.729082    0.610958     0.005394
PD3120   PD        0.386667    0.685657    0.609415     0.005394
NI3121   NI        0.401023    0.729360    0.645712     0.004307
PD3122   PD        0.443356    0.699965    0.650611     0.005394
PD3123   PD        0.425047    0.738115    0.605772     0.005394
PD3124   PD        0.460042    0.684303    0.604799     0.005394
PD3125   PD        0.461687    0.722495    0.641653     0.005394
NI3126   NI        0.511552    0.713829    0.653838     0.004307
NI3127   NI        0.495594    0.756929    0.621315     0.004307
NI3128   NI        0.546213    0.698877    0.606763     0.004307
NI3129   NI        0.545104    0.753267    0.638028     0.004307
PD3130   PD        0.596110    0.696585    0.620698     0.005394
NI3131   NI        0.577162    0.739919    0.599531     0.004307
PD3132   PD        0.621169    0.699240    0.606206     0.005394
NI3133   NI        0.620810    0.734055    0.646238     0.004307
NI3134   NI        0.656851    0.700611    0.645354     0.004307
PD3135   PD        0.655069    0.737091    0.607547     0.005394
NI3136   NI        0.672798    0.695368    0.608089     0.004307
NI3137   NI        0.710546    0.739193    0.631573     0.004307
NI3138   NI        0.733201    0.695049    0.628777     0.004307
NI3139   NI        0.743488    0.729403    0.592283     0.004307
NI3140   NI        0.773252    0.685753    0.598823     0.004307
NI3141   NI        0.756612    0.723765    0.641058     0.004307
NI3142   NI        0.792306    0.666336    0.631865     0.004307
NI3143   NI        0.824912    0.701965    0.617584     0.004307
NI3144   NI        0.168497    0.766304    0.611253     0.004307
NI3145   NI        0.206289    0.764877    0.644618     0.004307
NI3146   NI        0.197862    0.792805    0.602366     0.004307
NI3147   NI        0.239997    0.761477    0.605241     0.004307
NI3148   NI        0.218667    0.813312    0.662620     0.004307
NI3149   NI        0.280493    0.764762    0.643695     0.004307
NI3150   NI        0.278806    0.799204    0.605851     0.004307
NI3151   NI        0.313117    0.772817    0.594223     0.004307
NI3152   NI        0.317168    0.798803    0.638305     0.004307
NI3153   NI        0.358989    0.767897    0.640192     0.004307
NI3154   NI        0.378187    0.832352    0.629916     0.004307
PD3155   PD        0.391683    0.756759    0.604521     0.005394
NI3156   NI        0.389822    0.798816    0.633048     0.004307
PD3157   PD        0.428108    0.772129    0.639581     0.005394
NI3158   NI        0.431350    0.812232    0.603206     0.004307
PD3159   PD        0.463561    0.771960    0.603310     0.005394
NI3160   NI        0.467297    0.810764    0.639532     0.004307
PD3161   PD        0.500504    0.761903    0.636106     0.005394
PD3162   PD        0.502480    0.805635    0.602481     0.005394
NI3163   NI        0.553008    0.783084    0.610892     0.004307
PD3164   PD        0.537124    0.798383    0.639975     0.005394
NI3165   NI        0.579189    0.758428    0.625840     0.004307
PD3166   PD        0.574467    0.805960    0.604395     0.005394
NI3167   NI        0.640699    0.760124    0.620683     0.004307
NI3168   NI        0.617040    0.820587    0.662503     0.004307
NI3169   NI        0.650404    0.773205    0.646221     0.004307
NI3170   NI        0.650341    0.811001    0.612821     0.004307
NI3171   NI        0.688955    0.776821    0.611512     0.004307
NI3172   NI        0.689428    0.788154    0.641836     0.004307
NI3173   NI        0.727053    0.761406    0.609792     0.004307
NI3174   NI        0.739002    0.808732    0.620055     0.004307
NI3175   NI        0.775399    0.788275    0.590682     0.004307
NI3176   NI        0.293402    0.853160    0.628482     0.004307
NI3177   NI        0.318479    0.834034    0.601761     0.004307
NI3178   NI        0.346060    0.841627    0.621858     0.004307
NI3179   NI        0.359376    0.887647    0.601222     0.004307
NI3180   NI        0.392248    0.837250    0.599784     0.004307
NI3181   NI        0.382220    0.864288    0.640144     0.004307
NI3182   NI        0.423457    0.836062    0.639572     0.004307
NI3183   NI        0.426790    0.874674    0.603953     0.004307
NI3184   NI        0.469169    0.844665    0.603687     0.004307
NI3185   NI        0.466557    0.874450    0.663118     0.004307
NI3186   NI        0.505211    0.846378    0.640046     0.004307
NI3187   NI        0.507577    0.880357    0.601598     0.004307
NI3188   NI        0.540342    0.845733    0.604956     0.004307
NI3189   NI        0.530758    0.863328    0.626209     0.004307
NI3190   NI        0.572556    0.838473    0.644329     0.004307
NI3191   NI        0.582373    0.876132    0.600722     0.004307
NI3192   NI        0.614657    0.838166    0.603386     0.004307
NI3193   NI        0.643886    0.841057    0.652821     0.004307
NI3194   NI        0.284098    0.132142    0.678069     0.004307
NI3195   NI        0.304150    0.133154    0.747479     0.004307
NI3196   NI        0.356686    0.129411    0.674804     0.004307
NI3197   NI        0.381329    0.101474    0.679499     0.004307
NI3198   NI        0.382751    0.152551    0.708806     0.004307
NI3199   NI        0.438461    0.097593    0.728169     0.004307
NI3200   NI        0.440620    0.143736    0.689796     0.004307
NI3201   NI        0.486749    0.080321    0.661068     0.004307
PD3202   PD        0.469667    0.133386    0.713010     0.005394
NI3203   NI        0.505001    0.132992    0.750274     0.004307
PD3204   PD        0.504821    0.133450    0.674339     0.005394
NI3205   NI        0.541889    0.096847    0.675377     0.004307
NI3206   NI        0.539456    0.131842    0.712876     0.004307
NI3207   NI        0.547415    0.124969    0.686496     0.004307
NI3208   NI        0.612746    0.134158    0.715555     0.004307
NI3209   NI        0.651357    0.132618    0.679426     0.004307
NI3210   NI        0.209035    0.207012    0.676929     0.004307
NI3211   NI        0.245491    0.167282    0.678067     0.004307
NI3212   NI        0.243119    0.190838    0.734694     0.004307
NI3213   NI        0.284862    0.166676    0.714349     0.004307
PD3214   PD        0.282611    0.204122    0.679538     0.005394
NI3215   NI        0.301510    0.155490    0.692279     0.004307
PD3216   PD        0.319084    0.205786    0.714479     0.005394
NI3217   NI        0.334566    0.158288    0.726465     0.004307
PD3218   PD        0.357359    0.204538    0.676699     0.005394
NI3219   NI        0.393902    0.165627    0.680713     0.004307
PD3220   PD        0.392447    0.204593    0.716128     0.005394
PD3221   PD        0.431643    0.168708    0.713583     0.005394
PD3222   PD        0.431157    0.205892    0.679279     0.005394
PD3223   PD        0.466352    0.167074    0.676517     0.005394
PD3224   PD        0.468343    0.206519    0.713332     0.005394
PD3225   PD        0.506056    0.170353    0.711942     0.005394
NI3226   NI        0.489612    0.193893    0.699116     0.004307
PD3227   PD        0.541537    0.170455    0.675902     0.005394
PD3228   PD        0.543542    0.207930    0.718916     0.005394
NI3229   NI        0.569229    0.158970    0.703562     0.004307
PD3230   PD        0.579550    0.206288    0.682567     0.005394
NI3231   NI        0.614428    0.174690    0.675653     0.004307
PD3232   PD        0.615594    0.210029    0.713925     0.005394
NI3233   NI        0.651989    0.174478    0.711063     0.004307
NI3234   NI        0.643712    0.226080    0.709541     0.004307
NI3235   NI        0.687561    0.162429    0.672083     0.004307
NI3236   NI        0.686979    0.214319    0.710208     0.004307
NI3237   NI        0.730771    0.209823    0.687635     0.004307
NI3238   NI        0.129832    0.283811    0.672573     0.004307
NI3239   NI        0.169639    0.242060    0.676414     0.004307
NI3240   NI        0.171693    0.242535    0.749385     0.004307
NI3241   NI        0.208066    0.244186    0.712973     0.004307
PD3242   PD        0.208559    0.280836    0.677781     0.005394
NI3243   NI        0.237754    0.249448    0.667287     0.004307
NI3244   NI        0.223207    0.288646    0.725551     0.004307
PD3245   PD        0.282916    0.241576    0.713557     0.005394
NI3246   NI        0.261130    0.281067    0.686311     0.004307
NI3247   NI        0.330720    0.230625    0.671217     0.004307
PD3248   PD        0.320379    0.279014    0.714336     0.005394
PD3249   PD        0.357876    0.241105    0.714542     0.005394
PD3250   PD        0.354567    0.279811    0.678819     0.005394
PD3251   PD        0.390067    0.242556    0.675729     0.005394
PD3252   PD        0.394733    0.280278    0.713799     0.005394
NI3253   NI        0.418579    0.225758    0.692205     0.004307
PD3254   PD        0.431598    0.278411    0.681328     0.005394
PD3255   PD        0.465895    0.240215    0.679084     0.005394
PD3256   PD        0.467092    0.279786    0.716659     0.005394
NI3257   NI        0.514680    0.226543    0.728596     0.004307
PD3258   PD        0.504492    0.280089    0.680282     0.005394
PD3259   PD        0.543702    0.246884    0.683324     0.005394
PD3260   PD        0.543107    0.280680    0.719851     0.005394
PD3261   PD        0.579270    0.244339    0.721095     0.005394
PD3262   PD        0.574928    0.282401    0.679506     0.005394
PD3263   PD        0.612665    0.246300    0.670481     0.005394
NI3264   NI        0.621577    0.271236    0.730311     0.004307
NI3265   NI        0.647054    0.246510    0.709828     0.004307
NI3266   NI        0.657045    0.268727    0.691035     0.004307
NI3267   NI        0.697927    0.235704    0.682446     0.004307
NI3268   NI        0.693367    0.274660    0.728225     0.004307
NI3269   NI        0.723892    0.240049    0.726758     0.004307
NI3270   NI        0.731785    0.274954    0.691223     0.004307
NI3271   NI        0.799525    0.242428    0.690261     0.004307
NI3272   NI        0.770828    0.272108    0.722775     0.004307
NI3273   NI        0.781702    0.246558    0.679361     0.004307
NI3274   NI        0.134803    0.317908    0.712608     0.004307
NI3275   NI        0.145920    0.365491    0.679086     0.004307
PD3276   PD        0.171979    0.317582    0.675658     0.005394
PD3277   PD        0.171388    0.354681    0.711326     0.005394
NI3278   NI        0.183247    0.333799    0.718683     0.004307
NI3279   NI        0.201288    0.332308    0.693129     0.004307
NI3280   NI        0.238025    0.295547    0.686867     0.004307
PD3281   PD        0.243623    0.351768    0.714149     0.005394
PD3282   PD        0.280270    0.315671    0.712597     0.005394
PD3283   PD        0.283048    0.349859    0.678905     0.005394
PD3284   PD        0.319307    0.315172    0.678821     0.005394
PD3285   PD        0.320632    0.353715    0.713211     0.005394
PD3286   PD        0.356073    0.314774    0.714676     0.005394
PD3287   PD        0.356460    0.354103    0.678503     0.005394
PD3288   PD        0.395142    0.317352    0.679061     0.005394
PD3289   PD        0.370731    0.362799    0.732413     0.005394
PD3290   PD        0.429368    0.316896    0.715561     0.005394
PD3291   PD        0.428597    0.355590    0.677831     0.005394
PD3292   PD        0.467918    0.317075    0.680949     0.005394
PD3293   PD        0.467623    0.353450    0.714712     0.005394
PD3294   PD        0.502870    0.318980    0.717474     0.005394
PD3295   PD        0.502851    0.354877    0.682391     0.005394
PD3296   PD        0.536742    0.320294    0.677925     0.005394
PD3297   PD        0.538456    0.356746    0.719174     0.005394
PD3298   PD        0.554145    0.330439    0.718490     0.005394
PD3299   PD        0.575023    0.357286    0.679539     0.005394
PD3300   PD        0.618135    0.330592    0.665875     0.005394
NI3301   NI        0.614989    0.356072    0.704552     0.004307
PD3302   PD        0.642244    0.323695    0.707919     0.005394
PD3303   PD        0.647931    0.355814    0.668560     0.005394
NI3304   NI        0.703903    0.313223    0.695655     0.004307
PD3305   PD        0.686387    0.359564    0.711690     0.005394
NI3306   NI        0.731324    0.298354    0.738412     0.004307
NI3307   NI        0.732275    0.371537    0.693547     0.004307
NI3308   NI        0.749667    0.313061    0.671409     0.004307
NI3309   NI        0.771404    0.361939    0.726498     0.004307
NI3310   NI        0.815867    0.309454    0.714705     0.004307
NI3311   NI        0.803411    0.347203    0.688160     0.004307
NI3312   NI        0.077842    0.389468    0.667624     0.004307
NI3313   NI        0.095289    0.426836    0.712859     0.004307
NI3314   NI        0.115070    0.388082    0.705289     0.004307
PD3315   PD        0.134170    0.427129    0.675662     0.005394
PD3316   PD        0.171465    0.389142    0.674817     0.005394
PD3317   PD        0.172261    0.427811    0.710573     0.005394
PD3318   PD        0.206953    0.390127    0.713466     0.005394
PD3319   PD        0.213298    0.433595    0.672946     0.005394
PD3320   PD        0.244398    0.391476    0.677670     0.005394
PD3321   PD        0.243482    0.426608    0.716800     0.005394
PD3322   PD        0.282096    0.389984    0.712964     0.005394
PD3323   PD        0.279564    0.427419    0.680477     0.005394
PD3324   PD        0.305086    0.382796    0.673026     0.005394
PD3325   PD        0.319991    0.430862    0.709921     0.005394
PD3326   PD        0.353876    0.390823    0.716829     0.005394
NI3327   NI        0.366167    0.424954    0.695045     0.004307
PD3328   PD        0.392715    0.392200    0.679229     0.005394
PD3329   PD        0.387536    0.427990    0.716825     0.005394
PD3330   PD        0.429107    0.392209    0.715368     0.005394
PD3331   PD        0.426983    0.431775    0.681338     0.005394
PD3332   PD        0.478850    0.368337    0.690445     0.005394
PD3333   PD        0.463631    0.429713    0.718026     0.005394
PD3334   PD        0.500771    0.392709    0.716588     0.005394
PD3335   PD        0.500692    0.429667    0.682656     0.005394
PD3336   PD        0.527347    0.382293    0.673329     0.005394
PD3337   PD        0.537921    0.429300    0.717936     0.005394
PD3338   PD        0.574506    0.392117    0.718763     0.005394
PD3339   PD        0.575760    0.432014    0.685385     0.005394
PD3340   PD        0.610667    0.396733    0.668736     0.005394
PD3341   PD        0.628595    0.421708    0.716319     0.005394
PD3342   PD        0.674012    0.398299    0.722985     0.005394
PD3343   PD        0.648301    0.428199    0.682054     0.005394
PD3344   PD        0.683670    0.392176    0.673429     0.005394
NI3345   NI        0.679950    0.427695    0.710188     0.004307
NI3346   NI        0.712225    0.415010    0.745430     0.004307
NI3347   NI        0.733928    0.434147    0.670234     0.004307
NI3348   NI        0.768838    0.382118    0.684698     0.004307
NI3349   NI        0.760538    0.425814    0.713309     0.004307
NI3350   NI        0.800090    0.406111    0.728082     0.004307
NI3351   NI        0.800972    0.422266    0.680283     0.004307
NI3352   NI        0.851679    0.366870    0.680696     0.004307
NI3353   NI        0.834772    0.426247    0.727019     0.004307
NI3354   NI        0.098961    0.463687    0.672556     0.004307
NI3355   NI        0.113987    0.509860    0.714564     0.004307
PD3356   PD        0.135522    0.463511    0.711842     0.005394
NI3357   NI        0.102404    0.494002    0.687352     0.004307
PD3358   PD        0.171382    0.463461    0.673752     0.005394
PD3359   PD        0.169931    0.499398    0.713373     0.005394
PD3360   PD        0.206532    0.465099    0.713618     0.005394
PD3361   PD        0.204440    0.505900    0.682889     0.005394
PD3362   PD        0.243241    0.464545    0.679194     0.005394
PD3363   PD        0.241342    0.502890    0.715101     0.005394
PD3364   PD        0.277639    0.465073    0.716838     0.005394
PD3365   PD        0.277747    0.501011    0.677861     0.005394
PD3366   PD        0.316822    0.466214    0.682058     0.005394
PD3367   PD        0.313493    0.503147    0.719837     0.005394
PD3368   PD        0.351490    0.463187    0.717392     0.005394
PD3369   PD        0.350400    0.504354    0.684790     0.005394
PD3370   PD        0.387133    0.466074    0.683179     0.005394
PD3371   PD        0.388250    0.503530    0.720236     0.005394
PD3372   PD        0.426953    0.466255    0.720675     0.005394
PD3373   PD        0.425347    0.504900    0.684664     0.005394
PD3374   PD        0.464010    0.467443    0.684007     0.005394
NI3375   NI        0.480463    0.527726    0.719240     0.004307
PD3376   PD        0.498180    0.467911    0.720772     0.005394
PD3377   PD        0.498884    0.502348    0.682488     0.005394
PD3378   PD        0.523405    0.490160    0.682100     0.005394
PD3379   PD        0.512390    0.512605    0.720794     0.005394
PD3380   PD        0.572941    0.467383    0.722041     0.005394
PD3381   PD        0.571970    0.506825    0.685914     0.005394
PD3382   PD        0.600612    0.445782    0.683408     0.005394
PD3383   PD        0.623046    0.510985    0.710519     0.005394
PD3384   PD        0.658431    0.446687    0.715856     0.005394
PD3385   PD        0.661259    0.508865    0.675536     0.005394
PD3386   PD        0.689267    0.464448    0.674911     0.005394
PD3387   PD        0.694295    0.497692    0.717162     0.005394
PD3388   PD        0.726820    0.458874    0.714129     0.005394
NI3389   NI        0.735549    0.512970    0.688657     0.004307
NI3390   NI        0.756149    0.469149    0.667464     0.004307
NI3391   NI        0.757222    0.510763    0.713818     0.004307
NI3392   NI        0.816750    0.471870    0.711155     0.004307
NI3393   NI        0.827439    0.523002    0.689254     0.004307
NI3394   NI        0.841288    0.471733    0.672060     0.004307
NI3395   NI        0.828567    0.514188    0.741896     0.004307
NI3396   NI        0.097369    0.539720    0.675161     0.004307
NI3397   NI        0.128958    0.542545    0.725587     0.004307
NI3398   NI        0.151695    0.570309    0.681388     0.004307
NI3399   NI        0.170182    0.555994    0.665771     0.004307
NI3400   NI        0.166189    0.582173    0.726352     0.004307
PD3401   PD        0.201667    0.541326    0.722888     0.005394
PD3402   PD        0.200664    0.581667    0.687601     0.005394
PD3403   PD        0.239217    0.543758    0.685204     0.005394
PD3404   PD        0.238322    0.579554    0.722968     0.005394
PD3405   PD        0.277062    0.539810    0.720210     0.005394
PD3406   PD        0.277320    0.579641    0.685123     0.005394
PD3407   PD        0.313686    0.540618    0.683665     0.005394
PD3408   PD        0.313045    0.578164    0.720924     0.005394
NI3409   NI        0.356741    0.537185    0.743927     0.004307
PD3410   PD        0.349254    0.576466    0.684677     0.005394
PD3411   PD        0.388119    0.536870    0.670053     0.005394
NI3412   NI        0.380014    0.592995    0.723785     0.004307
PD3413   PD        0.427208    0.541268    0.721608     0.005394
PD3414   PD        0.424201    0.576560    0.681879     0.005394
PD3415   PD        0.476236    0.537049    0.695276     0.005394
PD3416   PD        0.463942    0.576830    0.721466     0.005394
PD3417   PD        0.497712    0.540329    0.719701     0.005394
PD3418   PD        0.498296    0.578871    0.680203     0.005394
PD3419   PD        0.535492    0.541324    0.682522     0.005394
PD3420   PD        0.537087    0.578558    0.706098     0.005394
PD3421   PD        0.572960    0.540900    0.718896     0.005394
PD3422   PD        0.572369    0.579764    0.687262     0.005394
PD3423   PD        0.606756    0.545514    0.681060     0.005394
NI3424   NI        0.619240    0.574342    0.723274     0.004307
NI3425   NI        0.668107    0.537263    0.710306     0.004307
PD3426   PD        0.645059    0.579273    0.677102     0.005394
PD3427   PD        0.693202    0.548429    0.665308     0.005394
NI3428   NI        0.684259    0.581983    0.728456     0.004307
NI3429   NI        0.727419    0.544425    0.729150     0.004307
NI3430   NI        0.730816    0.584486    0.664771     0.004307
NI3431   NI        0.779479    0.538836    0.675523     0.004307
NI3432   NI        0.757663    0.579695    0.710887     0.004307
NI3433   NI        0.804519    0.559076    0.710755     0.004307
NI3434   NI        0.803152    0.568224    0.693986     0.004307
NI3435   NI        0.863969    0.552369    0.666021     0.004307
NI3436   NI        0.130786    0.619049    0.726720     0.004307
NI3437   NI        0.134453    0.648585    0.677574     0.004307
NI3438   NI        0.179459    0.625187    0.670877     0.004307
NI3439   NI        0.161565    0.641578    0.715873     0.004307
NI3440   NI        0.204664    0.617799    0.724060     0.004307
PD3441   PD        0.201789    0.654063    0.686877     0.005394
NI3442   NI        0.249544    0.640184    0.686902     0.004307
PD3443   PD        0.242443    0.653252    0.720101     0.005394
PD3444   PD        0.276845    0.613426    0.722573     0.005394
PD3445   PD        0.277305    0.652584    0.684903     0.005394
PD3446   PD        0.314421    0.614558    0.685730     0.005394
PD3447   PD        0.313574    0.651331    0.721203     0.005394
NI3448   NI        0.357882    0.607293    0.710930     0.004307
PD3449   PD        0.350192    0.651285    0.683782     0.005394
PD3450   PD        0.392055    0.609630    0.673711     0.005394
NI3451   NI        0.403700    0.666654    0.724086     0.004307
PD3452   PD        0.434799    0.615509    0.710999     0.005394
PD3453   PD        0.423360    0.650190    0.681287     0.005394
PD3454   PD        0.459846    0.614719    0.682176     0.005394
PD3455   PD        0.456849    0.662586    0.716377     0.005394
PD3456   PD        0.496882    0.615175    0.717279     0.005394
PD3457   PD        0.498116    0.650936    0.685342     0.005394
PD3458   PD        0.533874    0.616319    0.675837     0.005394
PD3459   PD        0.537933    0.652013    0.711851     0.005394
PD3460   PD        0.580076    0.624507    0.708832     0.005394
PD3461   PD        0.583586    0.663588    0.660446     0.005394
PD3462   PD        0.613082    0.619938    0.667112     0.005394
NI3463   NI        0.618246    0.659703    0.701369     0.004307
NI3464   NI        0.660561    0.616596    0.712056     0.004307
NI3465   NI        0.661688    0.647493    0.674472     0.004307
PD3466   PD        0.686395    0.610346    0.668186     0.005394
NI3467   NI        0.709289    0.667124    0.710861     0.004307
NI3468   NI        0.746135    0.618373    0.741983     0.004307
NI3469   NI        0.749694    0.672432    0.694455     0.004307
NI3470   NI        0.758057    0.608016    0.669163     0.004307
NI3471   NI        0.796229    0.674449    0.713164     0.004307
NI3472   NI        0.795897    0.627006    0.729927     0.004307
NI3473   NI        0.796771    0.655131    0.679664     0.004307
NI3474   NI        0.180656    0.671740    0.680573     0.004307
NI3475   NI        0.207643    0.692797    0.720722     0.004307
NI3476   NI        0.208566    0.722924    0.674724     0.004307
PD3477   PD        0.241093    0.691307    0.681614     0.005394
NI3478   NI        0.232106    0.720469    0.704441     0.004307
NI3479   NI        0.291600    0.689632    0.716858     0.004307
PD3480   PD        0.279813    0.726317    0.681107     0.005394
NI3481   NI        0.314531    0.686175    0.677430     0.004307
NI3482   NI        0.319220    0.740291    0.717742     0.004307
PD3483   PD        0.349885    0.686730    0.720799     0.005394
NI3484   NI        0.352310    0.722603    0.662384     0.004307
NI3485   NI        0.375896    0.677220    0.682574     0.004307
NI3486   NI        0.393512    0.752659    0.741151     0.004307
PD3487   PD        0.423980    0.686777    0.720721     0.005394
PD3488   PD        0.437498    0.740321    0.681494     0.005394
NI3489   NI        0.465669    0.696057    0.687573     0.004307
NI3490   NI        0.459347    0.723478    0.717980     0.004307
NI3491   NI        0.513129    0.696783    0.704494     0.004307
NI3492   NI        0.488478    0.741777    0.682792     0.004307
PD3493   PD        0.532717    0.690350    0.679286     0.005394
NI3494   NI        0.534779    0.726052    0.698674     0.004307
NI3495   NI        0.612981    0.689958    0.741854     0.004307
NI3496   NI        0.573458    0.721178    0.664139     0.004307
PD3497   PD        0.595229    0.684569    0.648970     0.005394
NI3498   NI        0.641940    0.737522    0.741352     0.004307
NI3499   NI        0.652569    0.679848    0.712724     0.004307
NI3500   NI        0.644769    0.725819    0.689692     0.004307
NI3501   NI        0.702443    0.688787    0.704966     0.004307
NI3502   NI        0.694300    0.735712    0.686516     0.004307
NI3503   NI        0.724043    0.704873    0.724721     0.004307
NI3504   NI        0.733548    0.719967    0.674178     0.004307
NI3505   NI        0.755637    0.685109    0.674899     0.004307
NI3506   NI        0.222836    0.766651    0.671181     0.004307
NI3507   NI        0.276058    0.760564    0.721143     0.004307
NI3508   NI        0.282569    0.800932    0.675238     0.004307
NI3509   NI        0.323841    0.779104    0.681626     0.004307
NI3510   NI        0.319091    0.798790    0.717018     0.004307
NI3511   NI        0.359206    0.771047    0.713591     0.004307
NI3512   NI        0.350348    0.824305    0.709814     0.004307
NI3513   NI        0.394455    0.770772    0.676363     0.004307
NI3514   NI        0.387116    0.824502    0.723517     0.004307
NI3515   NI        0.429048    0.777541    0.714270     0.004307
NI3516   NI        0.448572    0.825816    0.707855     0.004307
NI3517   NI        0.457287    0.785885    0.677049     0.004307
NI3518   NI        0.469275    0.799643    0.711769     0.004307
NI3519   NI        0.496640    0.760614    0.732165     0.004307
NI3520   NI        0.500208    0.807705    0.676736     0.004307
NI3521   NI        0.537475    0.757373    0.671810     0.004307
NI3522   NI        0.543204    0.797396    0.735264     0.004307
NI3523   NI        0.574184    0.765039    0.698051     0.004307
NI3524   NI        0.563685    0.796914    0.655917     0.004307
NI3525   NI        0.611637    0.769395    0.679088     0.004307
NI3526   NI        0.604114    0.800391    0.718102     0.004307
NI3527   NI        0.654989    0.761082    0.707446     0.004307
NI3528   NI        0.656649    0.819014    0.699434     0.004307
NI3529   NI        0.728798    0.770961    0.669862     0.004307
NI3530   NI        0.391418    0.845942    0.676639     0.004307
NI3531   NI        0.430189    0.825528    0.703432     0.004307
NI3532   NI        0.485695    0.827259    0.672354     0.004307
NI3533   NI        0.500260    0.833735    0.713464     0.004307
NI3534   NI        0.533984    0.834654    0.678231     0.004307
NI3535   NI        0.433220    0.130095    0.748337     0.004307
NI3536   NI        0.494336    0.121339    0.756765     0.004307
NI3537   NI        0.284170    0.205547    0.750981     0.004307
NI3538   NI        0.322702    0.175628    0.773049     0.004307
NI3539   NI        0.315679    0.207303    0.789291     0.004307
PD3540   PD        0.355310    0.204071    0.752392     0.005394
NI3541   NI        0.390387    0.143844    0.735472     0.004307
NI3542   NI        0.390287    0.203560    0.789841     0.004307
NI3543   NI        0.430424    0.168420    0.785582     0.004307
PD3544   PD        0.432759    0.207197    0.750832     0.005394
NI3545   NI        0.469009    0.158252    0.727694     0.004307
NI3546   NI        0.480158    0.189997    0.783730     0.004307
NI3547   NI        0.504368    0.200163    0.798010     0.004307
PD3548   PD        0.502613    0.208429    0.747794     0.005394
NI3549   NI        0.565036    0.149426    0.751993     0.004307
NI3550   NI        0.538738    0.208544    0.785030     0.004307
NI3551   NI        0.566569    0.199565    0.764279     0.004307
NI3552   NI        0.614201    0.171875    0.751836     0.004307
NI3553   NI        0.631840    0.189440    0.796254     0.004307
NI3554   NI        0.648420    0.193186    0.747883     0.004307
NI3555   NI        0.176490    0.267182    0.748127     0.004307
PD3556   PD        0.245121    0.241023    0.750174     0.005394
NI3557   NI        0.241738    0.279169    0.785892     0.004307
PD3558   PD        0.280198    0.243521    0.786234     0.005394
PD3559   PD        0.280592    0.280446    0.748780     0.005394
PD3560   PD        0.318549    0.242695    0.751934     0.005394
PD3561   PD        0.317890    0.280452    0.788269     0.005394
PD3562   PD        0.354590    0.242037    0.786859     0.005394
PD3563   PD        0.356852    0.278440    0.750727     0.005394
PD3564   PD        0.392488    0.244518    0.752709     0.005394
NI3565   NI        0.406415    0.279054    0.816759     0.004307
PD3566   PD        0.428292    0.242359    0.786549     0.005394
NI3567   NI        0.440310    0.260012    0.745285     0.004307
NI3568   NI        0.471720    0.234806    0.765501     0.004307
PD3569   PD        0.465891    0.280724    0.788152     0.005394
NI3570   NI        0.520823    0.218610    0.765007     0.004307
PD3571   PD        0.496107    0.273428    0.745998     0.005394
PD3572   PD        0.540030    0.243437    0.754216     0.005394
PD3573   PD        0.539665    0.281413    0.792098     0.005394
NI3574   NI        0.600431    0.231081    0.786770     0.004307
PD3575   PD        0.577497    0.284033    0.752132     0.005394
NI3576   NI        0.625495    0.234001    0.767816     0.004307
NI3577   NI        0.607702    0.279309    0.790023     0.004307
NI3578   NI        0.672657    0.220257    0.785405     0.004307
NI3579   NI        0.651604    0.278669    0.761338     0.004307
NI3580   NI        0.688563    0.245704    0.752636     0.004307
NI3581   NI        0.698927    0.278906    0.775180     0.004307
NI3582   NI        0.740268    0.263695    0.749689     0.004307
NI3583   NI        0.168524    0.317893    0.749465     0.004307
NI3584   NI        0.193893    0.337008    0.802966     0.004307
PD3585   PD        0.207198    0.354146    0.748788     0.005394
PD3586   PD        0.245345    0.315930    0.748233     0.005394
NI3587   NI        0.236422    0.360985    0.794131     0.004307
PD3588   PD        0.281636    0.317915    0.785949     0.005394
PD3589   PD        0.280401    0.351828    0.749508     0.005394
PD3590   PD        0.318134    0.316767    0.750579     0.005394
NI3591   NI        0.276512    0.334302    0.815672     0.004307
NI3592   NI        0.379028    0.304848    0.798708     0.004307
PD3593   PD        0.354434    0.352231    0.752710     0.005394
PD3594   PD        0.391713    0.317548    0.751782     0.005394
PD3595   PD        0.389998    0.354645    0.788483     0.005394
PD3596   PD        0.426538    0.317908    0.787895     0.005394
PD3597   PD        0.428620    0.352595    0.754301     0.005394
PD3598   PD        0.464788    0.315128    0.754421     0.005394
NI3599   NI        0.472501    0.350600    0.782147     0.004307
PD3600   PD        0.502717    0.317796    0.791443     0.005394
PD3601   PD        0.500003    0.354640    0.753249     0.005394
NI3602   NI        0.529778    0.305783    0.766166     0.004307
PD3603   PD        0.538449    0.355539    0.792943     0.005394
PD3604   PD        0.576966    0.319943    0.788008     0.005394
NI3605   NI        0.569091    0.336673    0.756814     0.004307
PD3606   PD        0.614978    0.318111    0.753819     0.005394
NI3607   NI        0.612112    0.353743    0.793781     0.004307
NI3608   NI        0.666177    0.321178    0.795621     0.004307
NI3609   NI        0.646108    0.360820    0.744976     0.004307
NI3610   NI        0.687759    0.320573    0.751368     0.004307
NI3611   NI        0.685514    0.354909    0.794245     0.004307
NI3612   NI        0.744752    0.300541    0.789019     0.004307
NI3613   NI        0.731211    0.344138    0.765481     0.004307
NI3614   NI        0.773539    0.314577    0.750879     0.004307
NI3615   NI        0.132181    0.426620    0.749308     0.004307
NI3616   NI        0.196089    0.409992    0.762427     0.004307
NI3617   NI        0.167187    0.426372    0.787862     0.004307
NI3618   NI        0.188131    0.391357    0.821556     0.004307
PD3619   PD        0.206709    0.428379    0.748606     0.005394
PD3620   PD        0.243870    0.389703    0.751273     0.005394
NI3621   NI        0.214601    0.406065    0.809163     0.004307
PD3622   PD        0.278162    0.388385    0.788740     0.005394
PD3623   PD        0.277953    0.428559    0.752462     0.005394
PD3624   PD        0.318327    0.390603    0.752972     0.005394
NI3625   NI        0.327985    0.451079    0.792738     0.004307
PD3626   PD        0.351396    0.390712    0.789209     0.005394
PD3627   PD        0.352763    0.427132    0.755386     0.005394
NI3628   NI        0.418440    0.398612    0.780181     0.004307
PD3629   PD        0.387348    0.428519    0.791966     0.005394
PD3630   PD        0.427986    0.391339    0.791063     0.005394
PD3631   PD        0.426501    0.430187    0.755863     0.005394
PD3632   PD        0.463995    0.391687    0.752023     0.005394
PD3633   PD        0.461899    0.429230    0.791949     0.005394
PD3634   PD        0.501500    0.390104    0.788188     0.005394
PD3635   PD        0.499403    0.428875    0.755115     0.005394
PD3636   PD        0.536368    0.392961    0.755565     0.005394
PD3637   PD        0.539039    0.427393    0.791546     0.005394
PD3638   PD        0.574365    0.390418    0.789699     0.005394
PD3639   PD        0.572876    0.431024    0.756979     0.005394
NI3640   NI        0.616925    0.408939    0.742042     0.004307
PD3641   PD        0.610343    0.428531    0.793638     0.005394
NI3642   NI        0.648693    0.394765    0.784973     0.004307
NI3643   NI        0.654507    0.444878    0.774298     0.004307
NI3644   NI        0.686535    0.394121    0.747973     0.004307
NI3645   NI        0.697053    0.419029    0.811535     0.004307
NI3646   NI        0.726863    0.384142    0.803493     0.004307
NI3647   NI        0.722172    0.431294    0.755824     0.004307
NI3648   NI        0.758994    0.399199    0.758378     0.004307
NI3649   NI        0.747027    0.429679    0.797195     0.004307
NI3650   NI        0.809984    0.424654    0.732163     0.004307
NI3651   NI        0.141522    0.481226    0.746910     0.004307
PD3652   PD        0.169615    0.463442    0.750660     0.005394
NI3653   NI        0.165874    0.499695    0.787411     0.004307
NI3654   NI        0.205136    0.462773    0.788067     0.004307
NI3655   NI        0.173054    0.517337    0.761844     0.004307
PD3656   PD        0.242387    0.464759    0.751697     0.005394
PD3657   PD        0.242755    0.499471    0.788044     0.005394
PD3658   PD        0.277837    0.464815    0.790671     0.005394
PD3659   PD        0.277245    0.501952    0.754756     0.005394
NI3660   NI        0.292663    0.475603    0.765330     0.004307
PD3661   PD        0.313687    0.499999    0.791005     0.005394
PD3662   PD        0.352020    0.465080    0.791183     0.005394
NI3663   NI        0.326481    0.492086    0.742762     0.004307
PD3664   PD        0.388840    0.464881    0.754997     0.005394
PD3665   PD        0.388336    0.500283    0.792173     0.005394
NI3666   NI        0.442725    0.455317    0.811498     0.004307
PD3667   PD        0.425852    0.500895    0.755205     0.005394
PD3668   PD        0.464535    0.466096    0.756714     0.005394
PD3669   PD        0.462636    0.501355    0.793203     0.005394
PD3670   PD        0.499216    0.464598    0.793545     0.005394
PD3671   PD        0.499484    0.501742    0.759050     0.005394
PD3672   PD        0.537041    0.466414    0.755516     0.005394
PD3673   PD        0.534752    0.502546    0.794463     0.005394
NI3674   NI        0.576325    0.482007    0.782263     0.004307
NI3675   NI        0.569621    0.479920    0.771716     0.004307
PD3676   PD        0.619033    0.462236    0.744209     0.005394
PD3677   PD        0.611874    0.500735    0.798882     0.005394
PD3678   PD        0.646742    0.466066    0.786563     0.005394
NI3679   NI        0.647527    0.503537    0.750229     0.004307
NI3680   NI        0.685345    0.469588    0.754890     0.004307
NI3681   NI        0.712558    0.491848    0.791807     0.004307
NI3682   NI        0.734376    0.445610    0.799291     0.004307
NI3683   NI        0.741602    0.526956    0.759776     0.004307
NI3684   NI        0.803389    0.470312    0.755380     0.004307
NI3685   NI        0.766430    0.493706    0.792082     0.004307
NI3686   NI        0.806042    0.511938    0.735984     0.004307
NI3687   NI        0.166886    0.536567    0.752362     0.004307
NI3688   NI        0.203292    0.534832    0.791372     0.004307
NI3689   NI        0.203965    0.576049    0.760283     0.004307
PD3690   PD        0.240948    0.541957    0.757127     0.005394
NI3691   NI        0.266539    0.588848    0.808102     0.004307
NI3692   NI        0.263649    0.543973    0.815082     0.004307
PD3693   PD        0.277167    0.576359    0.757608     0.005394
PD3694   PD        0.314978    0.540014    0.756191     0.005394
PD3695   PD        0.315570    0.575657    0.794797     0.005394
PD3696   PD        0.351578    0.537528    0.792359     0.005394
NI3697   NI        0.364320    0.582252    0.772497     0.004307
PD3698   PD        0.389849    0.540276    0.758579     0.005394
PD3699   PD        0.389161    0.576069    0.793860     0.005394
PD3700   PD        0.423897    0.537821    0.792897     0.005394
NI3701   NI        0.421623    0.597971    0.756966     0.004307
NI3702   NI        0.447908    0.514991    0.757173     0.004307
NI3703   NI        0.472630    0.570730    0.779386     0.004307
NI3704   NI        0.512219    0.523466    0.770082     0.004307
NI3705   NI        0.480583    0.585268    0.755167     0.004307
PD3706   PD        0.540270    0.520219    0.748140     0.005394
NI3707   NI        0.534305    0.577118    0.792417     0.004307
NI3708   NI        0.570355    0.540978    0.794818     0.004307
NI3709   NI        0.571171    0.579854    0.752324     0.004307
NI3710   NI        0.611473    0.539195    0.762447     0.004307
NI3711   NI        0.609128    0.577698    0.795235     0.004307
NI3712   NI        0.644612    0.539517    0.785694     0.004307
NI3713   NI        0.640097    0.597352    0.743954     0.004307
NI3714   NI        0.688967    0.527099    0.758134     0.004307
NI3715   NI        0.682724    0.574343    0.777989     0.004307
NI3716   NI        0.726793    0.529302    0.796571     0.004307
NI3717   NI        0.737891    0.558509    0.725063     0.004307
NI3718   NI        0.769418    0.533128    0.757617     0.004307
NI3719   NI        0.167362    0.612858    0.765621     0.004307
NI3720   NI        0.203557    0.611118    0.787075     0.004307
NI3721   NI        0.201463    0.649432    0.751123     0.004307
NI3722   NI        0.248067    0.588895    0.796704     0.004307
NI3723   NI        0.257012    0.676086    0.796887     0.004307
NI3724   NI        0.279343    0.614418    0.796334     0.004307
NI3725   NI        0.302054    0.662351    0.774847     0.004307
PD3726   PD        0.313918    0.612951    0.758360     0.005394
NI3727   NI        0.314460    0.650624    0.794196     0.004307
NI3728   NI        0.328476    0.648062    0.775870     0.004307
PD3729   PD        0.350141    0.649545    0.758905     0.005394
NI3730   NI        0.404294    0.632800    0.749246     0.004307
PD3731   PD        0.386326    0.647857    0.794566     0.005394
PD3732   PD        0.423314    0.612674    0.793124     0.005394
PD3733   PD        0.424719    0.650988    0.756739     0.005394
PD3734   PD        0.461950    0.614840    0.756334     0.005394
PD3735   PD        0.459277    0.647906    0.793740     0.005394
PD3736   PD        0.497713    0.614651    0.792081     0.005394
NI3737   NI        0.510317    0.622271    0.746556     0.004307
NI3738   NI        0.533277    0.624578    0.749536     0.004307
NI3739   NI        0.542202    0.640128    0.787347     0.004307
NI3740   NI        0.587842    0.617669    0.788635     0.004307
NI3741   NI        0.571887    0.652579    0.749931     0.004307
NI3742   NI        0.602913    0.617462    0.769092     0.004307
NI3743   NI        0.629160    0.665104    0.781271     0.004307
NI3744   NI        0.638114    0.626959    0.799211     0.004307
NI3745   NI        0.694927    0.660105    0.774149     0.004307
NI3746   NI        0.721768    0.633554    0.747587     0.004307
NI3747   NI        0.682630    0.649222    0.784287     0.004307
NI3748   NI        0.728651    0.632812    0.798131     0.004307
NI3749   NI        0.755127    0.645707    0.785118     0.004307
NI3750   NI        0.791838    0.624191    0.754887     0.004307
NI3751   NI        0.250284    0.689773    0.752997     0.004307
NI3752   NI        0.288923    0.711811    0.782793     0.004307
NI3753   NI        0.286911    0.726069    0.750571     0.004307
NI3754   NI        0.325144    0.692481    0.751290     0.004307
NI3755   NI        0.301774    0.699393    0.791864     0.004307
NI3756   NI        0.351875    0.687242    0.793765     0.004307
NI3757   NI        0.352437    0.725169    0.751576     0.004307
NI3758   NI        0.377936    0.674561    0.735430     0.004307
NI3759   NI        0.391141    0.727951    0.784036     0.004307
NI3760   NI        0.420920    0.686853    0.793634     0.004307
NI3761   NI        0.448131    0.716585    0.766594     0.004307
NI3762   NI        0.487177    0.696958    0.740390     0.004307
NI3763   NI        0.460062    0.721863    0.793825     0.004307
NI3764   NI        0.506754    0.712160    0.808646     0.004307
NI3765   NI        0.489332    0.741084    0.774549     0.004307
NI3766   NI        0.560290    0.683328    0.778168     0.004307
NI3767   NI        0.536310    0.728088    0.788094     0.004307
NI3768   NI        0.570329    0.684859    0.785401     0.004307
NI3769   NI        0.573642    0.722823    0.750580     0.004307
NI3770   NI        0.601633    0.704513    0.752616     0.004307
NI3771   NI        0.613547    0.724349    0.783043     0.004307
NI3772   NI        0.627493    0.678429    0.790025     0.004307
NI3773   NI        0.681363    0.737262    0.777426     0.004307
NI3774   NI        0.684297    0.683208    0.746449     0.004307
NI3775   NI        0.321363    0.764431    0.748964     0.004307
NI3776   NI        0.390685    0.760541    0.755073     0.004307
NI3777   NI        0.429464    0.776643    0.788677     0.004307
NI3778   NI        0.429824    0.811986    0.750905     0.004307
NI3779   NI        0.462008    0.763935    0.750601     0.004307
NI3780   NI        0.521727    0.769403    0.806881     0.004307
NI3781   NI        0.500280    0.810100    0.752238     0.004307
NI3782   NI        0.545876    0.789099    0.783020     0.004307
NI3783   NI        0.619226    0.751546    0.743926     0.004307
NI3784   NI        0.452816    0.225262    0.835888     0.004307
NI3785   NI        0.501935    0.208277    0.827653     0.004307
NI3786   NI        0.279920    0.278691    0.822604     0.004307
NI3787   NI        0.328083    0.268310    0.837992     0.004307
NI3788   NI        0.390311    0.246270    0.827214     0.004307
NI3789   NI        0.373058    0.248875    0.846883     0.004307
NI3790   NI        0.413259    0.258393    0.833514     0.004307
NI3791   NI        0.462766    0.242374    0.825227     0.004307
NI3792   NI        0.474707    0.251355    0.880962     0.004307
PD3793   PD        0.500979    0.280326    0.828373     0.005394
NI3794   NI        0.540950    0.243701    0.823491     0.004307
NI3795   NI        0.538518    0.279927    0.862429     0.004307
NI3796   NI        0.575502    0.280114    0.828094     0.004307
NI3797   NI        0.638036    0.284555    0.841873     0.004307
PD3798   PD        0.278749    0.353228    0.825684     0.005394
PD3799   PD        0.317259    0.316306    0.823422     0.005394
PD3800   PD        0.316578    0.351667    0.861563     0.005394
PD3801   PD        0.352353    0.315175    0.861694     0.005394
PD3802   PD        0.352702    0.354226    0.826065     0.005394
NI3803   NI        0.371089    0.292309    0.821833     0.004307
NI3804   NI        0.411398    0.358486    0.855090     0.004307
NI3805   NI        0.443260    0.308427    0.842882     0.004307
PD3806   PD        0.426766    0.353645    0.826695     0.005394
PD3807   PD        0.462921    0.317512    0.825811     0.005394
PD3808   PD        0.461882    0.353487    0.864164     0.005394
NI3809   NI        0.508181    0.290198    0.892390     0.004307
PD3810   PD        0.497739    0.353893    0.826635     0.005394
NI3811   NI        0.505683    0.327936    0.852150     0.004307
NI3812   NI        0.542487    0.322739    0.869677     0.004307
NI3813   NI        0.586984    0.353330    0.870864     0.004307
NI3814   NI        0.544180    0.365399    0.842532     0.004307
NI3815   NI        0.589194    0.291299    0.824198     0.004307
NI3816   NI        0.612363    0.354212    0.863223     0.004307
NI3817   NI        0.649313    0.355811    0.829539     0.004307
NI3818   NI        0.205464    0.424871    0.822704     0.004307
NI3819   NI        0.227062    0.365155    0.843415     0.004307
NI3820   NI        0.258485    0.375865    0.882405     0.004307
NI3821   NI        0.315739    0.420331    0.833068     0.004307
PD3822   PD        0.314469    0.388559    0.823729     0.005394
NI3823   NI        0.316172    0.426264    0.863828     0.004307
PD3824   PD        0.388511    0.351259    0.862430     0.005394
PD3825   PD        0.350406    0.427646    0.828644     0.005394
PD3826   PD        0.389837    0.389538    0.826900     0.005394
PD3827   PD        0.389703    0.426021    0.866973     0.005394
PD3828   PD        0.425507    0.390282    0.864747     0.005394
PD3829   PD        0.424306    0.426268    0.828334     0.005394
NI3830   NI        0.460416    0.390776    0.811052     0.004307
NI3831   NI        0.479314    0.430994    0.891454     0.004307
PD3832   PD        0.498783    0.390661    0.865519     0.005394
NI3833   NI        0.487634    0.450803    0.841731     0.004307
NI3834   NI        0.554592    0.375539    0.819346     0.004307
NI3835   NI        0.549218    0.450175    0.856310     0.004307
NI3836   NI        0.572264    0.350864    0.900453     0.004307
PD3837   PD        0.574831    0.429307    0.826345     0.005394
PD3838   PD        0.613191    0.391654    0.827570     0.005394
NI3839   NI        0.611224    0.429533    0.862485     0.004307
NI3840   NI        0.678053    0.384316    0.859272     0.004307
NI3841   NI        0.647560    0.429835    0.825256     0.004307
NI3842   NI        0.686176    0.393088    0.826156     0.004307
NI3843   NI        0.720912    0.429120    0.827097     0.004307
NI3844   NI        0.204719    0.486753    0.850534     0.004307
PD3845   PD        0.242140    0.461676    0.825992     0.005394
NI3846   NI        0.301205    0.454802    0.862558     0.004307
PD3847   PD        0.277715    0.500043    0.827527     0.005394
NI3848   NI        0.320038    0.503219    0.858810     0.004307
PD3849   PD        0.313510    0.500486    0.866374     0.005394
PD3850   PD        0.351509    0.463102    0.864946     0.005394
PD3851   PD        0.351698    0.500066    0.828544     0.005394
PD3852   PD        0.387350    0.463213    0.828220     0.005394
NI3853   NI        0.414113    0.482427    0.859871     0.004307
PD3854   PD        0.424278    0.463880    0.866324     0.005394
PD3855   PD        0.425261    0.499148    0.830737     0.005394
PD3856   PD        0.461770    0.463154    0.829480     0.005394
PD3857   PD        0.463173    0.499113    0.867182     0.005394
PD3858   PD        0.499519    0.461521    0.865684     0.005394
PD3859   PD        0.499999    0.499720    0.830756     0.005394
PD3860   PD        0.535757    0.463758    0.829932     0.005394
PD3861   PD        0.536547    0.499408    0.867770     0.005394
NI3862   NI        0.571716    0.462337    0.867064     0.004307
PD3863   PD        0.573051    0.501662    0.830325     0.005394
NI3864   NI        0.606648    0.465463    0.818821     0.004307
NI3865   NI        0.603303    0.523728    0.865633     0.004307
NI3866   NI        0.647110    0.465082    0.865250     0.004307
NI3867   NI        0.642609    0.504554    0.841040     0.004307
NI3868   NI        0.685817    0.469523    0.823998     0.004307
NI3869   NI        0.718737    0.509580    0.825996     0.004307
NI3870   NI        0.213068    0.542179    0.824595     0.004307
NI3871   NI        0.277108    0.536768    0.864581     0.004307
NI3872   NI        0.276817    0.578330    0.804020     0.004307
PD3873   PD        0.313608    0.536201    0.829940     0.005394
NI3874   NI        0.313782    0.577634    0.862208     0.004307
NI3875   NI        0.316585    0.542184    0.896665     0.004307
NI3876   NI        0.352723    0.576450    0.826495     0.004307
PD3877   PD        0.387680    0.537498    0.829642     0.005394
NI3878   NI        0.391056    0.575084    0.866786     0.004307
NI3879   NI        0.442651    0.526162    0.864050     0.004307
PD3880   PD        0.425055    0.573731    0.831294     0.005394
PD3881   PD        0.461504    0.537985    0.832541     0.005394
NI3882   NI        0.505224    0.576300    0.900092     0.004307
NI3883   NI        0.479387    0.556843    0.877376     0.004307
NI3884   NI        0.517083    0.586911    0.853138     0.004307
NI3885   NI        0.567127    0.555692    0.826808     0.004307
NI3886   NI        0.536223    0.574375    0.865888     0.004307
NI3887   NI        0.573333    0.535410    0.872562     0.004307
NI3888   NI        0.556824    0.606919    0.825753     0.004307
NI3889   NI        0.617425    0.563964    0.836492     0.004307
NI3890   NI        0.626466    0.567174    0.864952     0.004307
NI3891   NI        0.668330    0.554560    0.883907     0.004307
NI3892   NI        0.666880    0.583798    0.841350     0.004307
NI3893   NI        0.690379    0.516857    0.831447     0.004307
NI3894   NI        0.250333    0.632649    0.822264     0.004307
NI3895   NI        0.300662    0.632561    0.839891     0.004307
NI3896   NI        0.352434    0.610303    0.869706     0.004307
NI3897   NI        0.351269    0.647692    0.834845     0.004307
PD3898   PD        0.387655    0.611911    0.832454     0.005394
NI3899   NI        0.388657    0.647015    0.867663     0.004307
NI3900   NI        0.425693    0.612364    0.867048     0.004307
NI3901   NI        0.448471    0.676945    0.835542     0.004307
NI3902   NI        0.471614    0.615071    0.796726     0.004307
NI3903   NI        0.463700    0.646075    0.867199     0.004307
NI3904   NI        0.501175    0.610670    0.863054     0.004307
NI3905   NI        0.499006    0.648608    0.825665     0.004307
NI3906   NI        0.536657    0.612048    0.828969     0.004307
NI3907   NI        0.539428    0.645709    0.857616     0.004307
NI3908   NI        0.575096    0.610257    0.853637     0.004307
NI3909   NI        0.572208    0.652102    0.824890     0.004307
NI3910   NI        0.627565    0.617131    0.823593     0.004307
NI3911   NI        0.648307    0.645668    0.820488     0.004307
NI3912   NI        0.386158    0.686232    0.831623     0.004307
NI3913   NI        0.425279    0.721738    0.831151     0.004307
NI3914   NI        0.461212    0.685977    0.832194     0.004307
NI3915   NI        0.508357    0.720459    0.817464     0.004307
NI3916   NI        0.530226    0.698471    0.852909     0.004307
NI3917   NI        0.406820    0.408260    0.912855     0.004307
NI3918   NI        0.462483    0.386547    0.901609     0.004307
NI3919   NI        0.538735    0.424703    0.909786     0.004307
PD3920   PD        0.388856    0.461811    0.901970     0.005394
NI3921   NI        0.425297    0.500232    0.904055     0.004307
NI3922   NI        0.461402    0.464021    0.902990     0.004307
NI3923   NI        0.515264    0.508875    0.919377     0.004307
NI3924   NI        0.536416    0.461270    0.903795     0.004307
NI3925   NI        0.465884    0.545440    0.883019     0.004307
