data_00001
_audit_creation_method   'DISCUS'

_data_chemical_name_common 'Pd.cell: Pearson 85'

_cell_length_a             57.1046
_cell_length_b             57.1046
_cell_length_c             57.1046
_cell_angle_alpha     90.0000
_cell_angle_beta      90.0000
_cell_angle_gamma     90.0000

_symmetry_space_group_name_H-M   'P1              '

loop_
_atom_site_label
_atom_site_symbol
_atom_site_fract_x
_atom_site_fract_y
_atom_site_fract_z
_atom_site_u_iso_or_equiv
NI1   NI        0.371823    0.253045    0.041309     0.004307
NI2   NI        0.421849    0.256015    0.088952     0.004307
NI3   NI        0.497308    0.266602    0.079792     0.004307
NI4   NI        0.281077    0.300274    0.086694     0.004307
NI5   NI        0.310762    0.269399    0.061507     0.004307
NI6   NI        0.327294    0.308337    0.082783     0.004307
NI7   NI        0.388847    0.288368    0.086432     0.004307
NI8   NI        0.407735    0.309205    0.062360     0.004307
NI9   NI        0.437632    0.271492    0.055794     0.004307
NI10   NI        0.481834    0.333483    0.084678     0.004307
NI11   NI        0.518998    0.286634    0.085001     0.004307
NI12   NI        0.553879    0.319097    0.076109     0.004307
NI13   NI        0.228951    0.339223    0.067897     0.004307
NI14   NI        0.277181    0.389984    0.092345     0.004307
NI15   NI        0.309955    0.352202    0.074244     0.004307
NI16   NI        0.342527    0.387860    0.072529     0.004307
NI17   NI        0.382780    0.355152    0.078146     0.004307
NI18   NI        0.389007    0.389927    0.059978     0.004307
NI19   NI        0.405107    0.372949    0.038327     0.004307
NI20   NI        0.426160    0.377687    0.086083     0.004307
NI21   NI        0.459751    0.348243    0.088768     0.004307
NI22   NI        0.446130    0.396915    0.041447     0.004307
NI23   NI        0.505253    0.407409    0.072379     0.004307
NI24   NI        0.509362    0.338988    0.070951     0.004307
NI25   NI        0.553551    0.396857    0.088189     0.004307
NI26   NI        0.607439    0.337240    0.072766     0.004307
NI27   NI        0.244555    0.420901    0.079019     0.004307
NI28   NI        0.249168    0.449190    0.058313     0.004307
NI29   NI        0.316766    0.422226    0.086600     0.004307
NI30   NI        0.347059    0.406319    0.027833     0.004307
NI31   NI        0.344363    0.458924    0.081002     0.004307
NI32   NI        0.372466    0.423051    0.070724     0.004307
NI33   NI        0.382004    0.465670    0.030788     0.004307
NI34   NI        0.445695    0.445626    0.042367     0.004307
NI35   NI        0.424521    0.455206    0.084237     0.004307
NI36   NI        0.461334    0.413182    0.085055     0.004307
NI37   NI        0.438842    0.470887    0.000714     0.004307
NI38   NI        0.491393    0.397251    0.029290     0.004307
NI39   NI        0.485543    0.445669    0.066510     0.004307
NI40   NI        0.489832    0.406398    0.076282     0.004307
NI41   NI        0.529768    0.462236    0.069769     0.004307
NI42   NI        0.582901    0.429570    0.068996     0.004307
NI43   NI        0.244512    0.488535    0.088061     0.004307
NI44   NI        0.256808    0.533070    0.075741     0.004307
NI45   NI        0.277948    0.523427    0.085744     0.004307
NI46   NI        0.346302    0.525421    0.086438     0.004307
NI47   NI        0.393297    0.501036    0.064084     0.004307
NI48   NI        0.408596    0.493427    0.039535     0.004307
NI49   NI        0.406396    0.539250    0.078827     0.004307
NI50   NI        0.448367    0.466010    0.046850     0.004307
NI51   NI        0.485030    0.531352    0.085646     0.004307
NI52   NI        0.547493    0.521779    0.087953     0.004307
NI53   NI        0.561184    0.567551    0.071247     0.004307
NI54   NI        0.607059    0.486314    0.082849     0.004307
NI55   NI        0.314910    0.553812    0.083425     0.004307
NI56   NI        0.349288    0.594784    0.083718     0.004307
NI57   NI        0.375710    0.558212    0.069876     0.004307
NI58   NI        0.402749    0.585533    0.067944     0.004307
NI59   NI        0.447453    0.601968    0.064855     0.004307
NI60   NI        0.483716    0.591964    0.084061     0.004307
NI61   NI        0.515635    0.557734    0.085977     0.004307
NI62   NI        0.289881    0.174258    0.150515     0.004307
NI63   NI        0.339477    0.195243    0.127297     0.004307
NI64   NI        0.386500    0.159320    0.152825     0.004307
NI65   NI        0.381050    0.193853    0.098629     0.004307
NI66   NI        0.419332    0.186807    0.153454     0.004307
NI67   NI        0.455006    0.146648    0.153158     0.004307
NI68   NI        0.462225    0.175129    0.118597     0.004307
NI69   NI        0.487538    0.185281    0.153694     0.004307
NI70   NI        0.569682    0.187918    0.139103     0.004307
NI71   NI        0.208970    0.246942    0.139277     0.004307
NI72   NI        0.246775    0.214686    0.140091     0.004307
NI73   NI        0.245675    0.248820    0.108057     0.004307
NI74   NI        0.278555    0.250002    0.144178     0.004307
NI75   NI        0.317432    0.212243    0.153046     0.004307
NI76   NI        0.326022    0.237289    0.111951     0.004307
NI77   NI        0.350912    0.223762    0.119400     0.004307
NI78   NI        0.325567    0.240991    0.132293     0.004307
NI79   NI        0.377483    0.205447    0.144722     0.004307
NI80   NI        0.408752    0.237787    0.127529     0.004307
NI81   NI        0.424378    0.195250    0.115761     0.004307
NI82   NI        0.408860    0.237988    0.127903     0.004307
NI83   NI        0.453021    0.213969    0.152344     0.004307
NI84   NI        0.415604    0.249874    0.083021     0.004307
NI85   NI        0.488200    0.214823    0.116731     0.004307
NI86   NI        0.485387    0.248299    0.150094     0.004307
NI87   NI        0.505362    0.199319    0.151945     0.004307
NI88   NI        0.521561    0.251232    0.117168     0.004307
NI89   NI        0.579486    0.233348    0.143487     0.004307
NI90   NI        0.590506    0.218931    0.152273     0.004307
NI91   NI        0.604453    0.260155    0.104479     0.004307
NI92   NI        0.624635    0.251242    0.145444     0.004307
NI93   NI        0.176792    0.280391    0.141866     0.004307
NI94   NI        0.212328    0.304842    0.127222     0.004307
NI95   NI        0.240087    0.281093    0.141189     0.004307
NI96   NI        0.240724    0.315886    0.108051     0.004307
NI97   NI        0.280203    0.284031    0.111481     0.004307
NI98   NI        0.277685    0.314728    0.144227     0.004307
NI99   NI        0.313107    0.283119    0.144806     0.004307
NI100   NI        0.308138    0.323177    0.097321     0.004307
NI101   NI        0.310991    0.274156    0.098561     0.004307
NI102   NI        0.339276    0.307947    0.129398     0.004307
NI103   NI        0.378977    0.288724    0.149848     0.004307
NI104   NI        0.384675    0.299123    0.120801     0.004307
NI105   NI        0.432420    0.278325    0.131006     0.004307
PD106   PD        0.417249    0.316611    0.152852     0.005394
NI107   NI        0.440409    0.275012    0.127484     0.004307
NI108   NI        0.467660    0.306409    0.112530     0.004307
NI109   NI        0.486849    0.286301    0.116633     0.004307
PD110   PD        0.483997    0.318411    0.152956     0.005394
PD111   PD        0.518657    0.282458    0.153066     0.005394
NI112   NI        0.512022    0.317735    0.120432     0.004307
NI113   NI        0.550324    0.293795    0.118381     0.004307
NI114   NI        0.552196    0.320390    0.155402     0.004307
NI115   NI        0.604125    0.288498    0.146854     0.004307
NI116   NI        0.595532    0.306808    0.106046     0.004307
NI117   NI        0.618305    0.332643    0.138305     0.004307
NI118   NI        0.678143    0.302482    0.145118     0.004307
NI119   NI        0.138925    0.383467    0.140961     0.004307
NI120   NI        0.184083    0.363015    0.149112     0.004307
NI121   NI        0.173625    0.382673    0.108359     0.004307
NI122   NI        0.209525    0.350115    0.109329     0.004307
NI123   NI        0.208596    0.383882    0.143330     0.004307
NI124   NI        0.247481    0.352847    0.147610     0.004307
NI125   NI        0.244846    0.384809    0.111757     0.004307
NI126   NI        0.277632    0.351236    0.110148     0.004307
NI127   NI        0.282486    0.404871    0.159365     0.004307
NI128   NI        0.310530    0.348149    0.138475     0.004307
NI129   NI        0.315646    0.384970    0.115813     0.004307
NI130   NI        0.345176    0.347793    0.107901     0.004307
NI131   NI        0.339256    0.387573    0.139916     0.004307
NI132   NI        0.365402    0.358582    0.139847     0.004307
NI133   NI        0.374006    0.390978    0.104905     0.004307
NI134   NI        0.413081    0.348598    0.115946     0.004307
NI135   NI        0.419503    0.382459    0.151776     0.004307
NI136   NI        0.459017    0.340226    0.154525     0.004307
NI137   NI        0.430866    0.387327    0.108638     0.004307
NI138   NI        0.466638    0.343870    0.092275     0.004307
NI139   NI        0.502483    0.373779    0.147638     0.004307
NI140   NI        0.517483    0.367930    0.131119     0.004307
NI141   NI        0.535908    0.384506    0.099120     0.004307
NI142   NI        0.549960    0.342071    0.106420     0.004307
NI143   NI        0.564791    0.382362    0.130790     0.004307
NI144   NI        0.585675    0.355792    0.154077     0.004307
NI145   NI        0.598551    0.381829    0.097629     0.004307
NI146   NI        0.623141    0.344794    0.115999     0.004307
NI147   NI        0.626040    0.399075    0.125581     0.004307
NI148   NI        0.654812    0.364239    0.141953     0.004307
NI149   NI        0.687009    0.392854    0.084968     0.004307
NI150   NI        0.699543    0.406416    0.128298     0.004307
NI151   NI        0.139058    0.458455    0.157978     0.004307
NI152   NI        0.173913    0.417485    0.143604     0.004307
NI153   NI        0.157118    0.460336    0.112481     0.004307
NI154   NI        0.207648    0.417772    0.108373     0.004307
NI155   NI        0.204195    0.450911    0.139431     0.004307
NI156   NI        0.241337    0.424472    0.156354     0.004307
NI157   NI        0.239897    0.451034    0.104632     0.004307
NI158   NI        0.266957    0.437047    0.099529     0.004307
NI159   NI        0.279425    0.452133    0.150249     0.004307
NI160   NI        0.306542    0.420337    0.144811     0.004307
NI161   NI        0.334342    0.444769    0.099171     0.004307
NI162   NI        0.336590    0.422027    0.107888     0.004307
NI163   NI        0.338619    0.456103    0.139626     0.004307
NI164   NI        0.386285    0.420717    0.150327     0.004307
NI165   NI        0.406446    0.464698    0.095309     0.004307
NI166   NI        0.411334    0.415707    0.109248     0.004307
NI167   NI        0.405820    0.454212    0.138439     0.004307
NI168   NI        0.451293    0.439350    0.142883     0.004307
NI169   NI        0.441749    0.453044    0.103679     0.004307
NI170   NI        0.472332    0.413970    0.107632     0.004307
NI171   NI        0.504680    0.460190    0.139678     0.004307
NI172   NI        0.530303    0.415047    0.133125     0.004307
NI173   NI        0.509077    0.462870    0.105069     0.004307
NI174   NI        0.573166    0.418497    0.113466     0.004307
NI175   NI        0.546973    0.470884    0.151451     0.004307
NI176   NI        0.589578    0.417320    0.152434     0.004307
NI177   NI        0.588062    0.464503    0.126884     0.004307
NI178   NI        0.653411    0.420941    0.100627     0.004307
NI179   NI        0.626811    0.457982    0.152067     0.004307
NI180   NI        0.654295    0.421309    0.128479     0.004307
NI181   NI        0.666832    0.461909    0.106457     0.004307
NI182   NI        0.695149    0.466758    0.143552     0.004307
NI183   NI        0.179026    0.499238    0.159658     0.004307
NI184   NI        0.216032    0.487486    0.127093     0.004307
NI185   NI        0.207053    0.534584    0.142649     0.004307
NI186   NI        0.239443    0.497302    0.142069     0.004307
NI187   NI        0.244798    0.525049    0.117747     0.004307
NI188   NI        0.285471    0.485420    0.136306     0.004307
NI189   NI        0.285317    0.509195    0.134294     0.004307
NI190   NI        0.321392    0.501922    0.133090     0.004307
NI191   NI        0.291169    0.519637    0.104304     0.004307
NI192   NI        0.342098    0.493234    0.108175     0.004307
NI193   NI        0.358398    0.522375    0.156098     0.004307
NI194   NI        0.365865    0.518038    0.143721     0.004307
NI195   NI        0.399982    0.513791    0.110666     0.004307
NI196   NI        0.409518    0.489733    0.109181     0.004307
NI197   NI        0.417763    0.537518    0.149240     0.004307
NI198   NI        0.464149    0.485427    0.152213     0.004307
NI199   NI        0.447491    0.514218    0.127076     0.004307
NI200   NI        0.492458    0.503993    0.124086     0.004307
NI201   NI        0.499627    0.515145    0.165811     0.004307
NI202   NI        0.523697    0.521533    0.128423     0.004307
NI203   NI        0.512821    0.524160    0.121022     0.004307
NI204   NI        0.568112    0.485162    0.112316     0.004307
NI205   NI        0.568421    0.530353    0.145578     0.004307
NI206   NI        0.595433    0.494597    0.164715     0.004307
NI207   NI        0.587464    0.529817    0.115324     0.004307
NI208   NI        0.614066    0.490428    0.119854     0.004307
NI209   NI        0.633098    0.525750    0.147703     0.004307
NI210   NI        0.665934    0.487955    0.145772     0.004307
NI211   NI        0.161099    0.547522    0.152923     0.004307
NI212   NI        0.196081    0.617522    0.152118     0.004307
NI213   NI        0.250883    0.564184    0.144786     0.004307
NI214   NI        0.225690    0.587580    0.084358     0.004307
NI215   NI        0.285106    0.561146    0.116318     0.004307
NI216   NI        0.283038    0.594276    0.161573     0.004307
NI217   NI        0.312905    0.568150    0.146832     0.004307
NI218   NI        0.294240    0.589004    0.079350     0.004307
NI219   NI        0.345071    0.553111    0.107241     0.004307
NI220   NI        0.342612    0.591467    0.137118     0.004307
NI221   NI        0.379203    0.562383    0.135853     0.004307
NI222   NI        0.374481    0.590711    0.104893     0.004307
NI223   NI        0.408693    0.559644    0.107163     0.004307
NI224   NI        0.407924    0.598174    0.137521     0.004307
NI225   NI        0.455033    0.565639    0.156836     0.004307
NI226   NI        0.448118    0.603360    0.112902     0.004307
NI227   NI        0.482351    0.560651    0.119846     0.004307
NI228   NI        0.511714    0.614630    0.146152     0.004307
NI229   NI        0.511242    0.562017    0.150454     0.004307
NI230   NI        0.522257    0.583667    0.111226     0.004307
NI231   NI        0.562399    0.565619    0.094444     0.004307
NI232   NI        0.542341    0.599026    0.146718     0.004307
NI233   NI        0.602858    0.564447    0.143483     0.004307
NI234   NI        0.583112    0.592229    0.119639     0.004307
NI235   NI        0.618890    0.604772    0.146526     0.004307
NI236   NI        0.646662    0.560499    0.143351     0.004307
NI237   NI        0.236163    0.630304    0.136188     0.004307
NI238   NI        0.277626    0.652492    0.153918     0.004307
NI239   NI        0.316471    0.628426    0.155048     0.004307
NI240   NI        0.362890    0.629546    0.115065     0.004307
NI241   NI        0.340894    0.673289    0.146889     0.004307
NI242   NI        0.370397    0.628907    0.140460     0.004307
NI243   NI        0.400622    0.685587    0.116170     0.004307
NI244   NI        0.409197    0.623112    0.097011     0.004307
NI245   NI        0.416306    0.689506    0.117109     0.004307
NI246   NI        0.465947    0.630885    0.147994     0.004307
NI247   NI        0.451487    0.681946    0.087101     0.004307
NI248   NI        0.491519    0.620534    0.119582     0.004307
NI249   NI        0.491197    0.680991    0.143545     0.004307
NI250   NI        0.534029    0.642605    0.122369     0.004307
NI251   NI        0.589704    0.663033    0.135185     0.004307
NI252   NI        0.579457    0.624700    0.153639     0.004307
NI253   NI        0.360324    0.712339    0.125828     0.004307
NI254   NI        0.458296    0.711310    0.123672     0.004307
NI255   NI        0.275943    0.093867    0.193475     0.004307
NI256   NI        0.339724    0.126644    0.197124     0.004307
NI257   NI        0.398671    0.073400    0.222658     0.004307
NI258   NI        0.385781    0.119378    0.189603     0.004307
NI259   NI        0.424100    0.126354    0.194822     0.004307
NI260   NI        0.436656    0.069932    0.227253     0.004307
NI261   NI        0.473034    0.132632    0.191913     0.004307
NI262   NI        0.501138    0.093540    0.196755     0.004307
NI263   NI        0.544917    0.111637    0.195520     0.004307
NI264   NI        0.209160    0.180342    0.206695     0.004307
NI265   NI        0.255724    0.160570    0.198880     0.004307
NI266   NI        0.243588    0.180413    0.173192     0.004307
NI267   NI        0.279107    0.150933    0.185874     0.004307
NI268   NI        0.275733    0.176826    0.209193     0.004307
NI269   NI        0.311418    0.147969    0.216955     0.004307
NI270   NI        0.300942    0.151611    0.191181     0.004307
NI271   NI        0.361848    0.137747    0.185626     0.004307
PD272   PD        0.353991    0.191020    0.223441     0.005394
NI273   NI        0.385938    0.155276    0.219828     0.004307
NI274   NI        0.383776    0.180930    0.186580     0.004307
NI275   NI        0.419625    0.150316    0.186704     0.004307
PD276   PD        0.421809    0.188946    0.223262     0.005394
NI277   NI        0.452548    0.152689    0.222277     0.004307
NI278   NI        0.454037    0.187068    0.189883     0.004307
NI279   NI        0.488084    0.153552    0.188384     0.004307
PD280   PD        0.491392    0.180391    0.220233     0.005394
NI281   NI        0.523790    0.144272    0.220815     0.004307
NI282   NI        0.505106    0.187723    0.173898     0.004307
NI283   NI        0.559073    0.148357    0.185874     0.004307
NI284   NI        0.556842    0.181598    0.220255     0.004307
NI285   NI        0.591534    0.124569    0.190493     0.004307
NI286   NI        0.610774    0.159271    0.163251     0.004307
NI287   NI        0.628284    0.173275    0.204972     0.004307
NI288   NI        0.145403    0.230975    0.192631     0.004307
NI289   NI        0.168253    0.190859    0.230538     0.004307
NI290   NI        0.183518    0.255983    0.174199     0.004307
NI291   NI        0.208264    0.212825    0.176897     0.004307
NI292   NI        0.208013    0.248621    0.211505     0.004307
NI293   NI        0.241957    0.213829    0.209055     0.004307
NI294   NI        0.241734    0.246152    0.175336     0.004307
NI295   NI        0.278269    0.213160    0.176023     0.004307
NI296   NI        0.268060    0.254102    0.200154     0.004307
NI297   NI        0.309744    0.214271    0.212160     0.004307
PD298   PD        0.312177    0.248648    0.177989     0.005394
NI299   NI        0.370191    0.196437    0.145955     0.004307
PD300   PD        0.346770    0.247197    0.211830     0.005394
NI301   NI        0.393227    0.202909    0.204592     0.004307
NI302   NI        0.386164    0.248096    0.187358     0.004307
NI303   NI        0.409877    0.212808    0.168176     0.004307
NI304   NI        0.428979    0.233643    0.202070     0.004307
PD305   PD        0.458806    0.217894    0.219383     0.005394
NI306   NI        0.437572    0.253288    0.171169     0.004307
NI307   NI        0.493150    0.214333    0.183767     0.004307
PD308   PD        0.494731    0.247584    0.216791     0.005394
NI309   NI        0.533912    0.219534    0.209283     0.004307
NI310   NI        0.516705    0.231229    0.180075     0.004307
NI311   NI        0.551690    0.204438    0.165883     0.004307
NI312   NI        0.558514    0.250704    0.239949     0.004307
PD313   PD        0.588148    0.217304    0.221043     0.005394
NI314   NI        0.590990    0.251574    0.187231     0.004307
NI315   NI        0.610818    0.231158    0.181960     0.004307
NI316   NI        0.623508    0.251701    0.221962     0.004307
NI317   NI        0.658285    0.216271    0.221697     0.004307
NI318   NI        0.654904    0.245318    0.173179     0.004307
NI319   NI        0.679066    0.253233    0.219553     0.004307
NI320   NI        0.106696    0.274182    0.202489     0.004307
NI321   NI        0.140826    0.304838    0.183332     0.004307
NI322   NI        0.139485    0.315323    0.209971     0.004307
NI323   NI        0.173938    0.281090    0.209112     0.004307
NI324   NI        0.175881    0.315058    0.177485     0.004307
NI325   NI        0.208414    0.281542    0.176512     0.004307
NI326   NI        0.208351    0.315855    0.211290     0.004307
NI327   NI        0.220830    0.269184    0.200490     0.004307
NI328   NI        0.241384    0.313895    0.174752     0.004307
PD329   PD        0.277537    0.281769    0.177451     0.005394
PD330   PD        0.276853    0.315273    0.213333     0.005394
NI331   NI        0.309748    0.277495    0.208974     0.004307
NI332   NI        0.310838    0.315953    0.164238     0.004307
NI333   NI        0.345429    0.285220    0.184915     0.004307
NI334   NI        0.362737    0.318330    0.218171     0.004307
PD335   PD        0.375554    0.285772    0.218831     0.005394
NI336   NI        0.372005    0.310192    0.165417     0.004307
NI337   NI        0.428959    0.290576    0.191418     0.004307
PD338   PD        0.405602    0.323811    0.198505     0.005394
PD339   PD        0.461347    0.285571    0.217540     0.005394
PD340   PD        0.439954    0.329451    0.165566     0.005394
NI341   NI        0.497090    0.288543    0.190107     0.004307
PD342   PD        0.488564    0.325513    0.213704     0.005394
PD343   PD        0.503314    0.282566    0.197782     0.005394
NI344   NI        0.534359    0.319114    0.198805     0.004307
PD345   PD        0.521353    0.318495    0.183417     0.005394
PD346   PD        0.562954    0.325558    0.207991     0.005394
NI347   NI        0.585320    0.282590    0.207785     0.004307
NI348   NI        0.600677    0.320433    0.181127     0.004307
NI349   NI        0.627614    0.281304    0.186723     0.004307
PD350   PD        0.625076    0.317988    0.220320     0.005394
NI351   NI        0.680240    0.296229    0.208331     0.004307
NI352   NI        0.657774    0.320562    0.186733     0.004307
NI353   NI        0.706217    0.312154    0.177880     0.004307
NI354   NI        0.716787    0.298464    0.190880     0.004307
NI355   NI        0.743763    0.301499    0.211275     0.004307
NI356   NI        0.070811    0.380745    0.205991     0.004307
NI357   NI        0.128829    0.349789    0.195406     0.004307
NI358   NI        0.104510    0.383416    0.172778     0.004307
NI359   NI        0.127868    0.358324    0.189815     0.004307
NI360   NI        0.139482    0.383682    0.211624     0.004307
NI361   NI        0.206374    0.329383    0.231894     0.004307
NI362   NI        0.173166    0.383376    0.176243     0.004307
PD363   PD        0.209532    0.350235    0.177344     0.005394
NI364   NI        0.206985    0.390032    0.223795     0.004307
NI365   NI        0.239619    0.341325    0.201208     0.004307
PD366   PD        0.242531    0.383346    0.179812     0.005394
NI367   NI        0.276187    0.348109    0.178112     0.004307
PD368   PD        0.285799    0.377278    0.198336     0.005394
PD369   PD        0.295070    0.358648    0.214698     0.005394
NI370   NI        0.304879    0.407359    0.167811     0.004307
NI371   NI        0.344595    0.349838    0.169359     0.004307
PD372   PD        0.344558    0.378426    0.206856     0.005394
PD373   PD        0.380586    0.350328    0.221086     0.005394
PD374   PD        0.377708    0.385445    0.171629     0.005394
PD375   PD        0.410861    0.356430    0.190631     0.005394
PD376   PD        0.432688    0.400956    0.215409     0.005394
NI377   NI        0.458295    0.355360    0.199942     0.004307
PD378   PD        0.449642    0.385685    0.188929     0.005394
NI379   NI        0.495288    0.340426    0.183905     0.004307
PD380   PD        0.482910    0.384265    0.223123     0.005394
PD381   PD        0.520728    0.340477    0.223841     0.005394
NI382   NI        0.528341    0.388436    0.164020     0.004307
PD383   PD        0.550565    0.354285    0.189057     0.005394
NI384   NI        0.560236    0.390465    0.200702     0.004307
NI385   NI        0.603460    0.352125    0.219305     0.004307
NI386   NI        0.603766    0.383939    0.181133     0.004307
NI387   NI        0.634265    0.359148    0.181983     0.004307
NI388   NI        0.624150    0.386140    0.220483     0.004307
NI389   NI        0.658497    0.353158    0.219729     0.004307
NI390   NI        0.648785    0.403777    0.170744     0.004307
NI391   NI        0.691620    0.348054    0.165104     0.004307
NI392   NI        0.712186    0.380906    0.206222     0.004307
NI393   NI        0.752796    0.359233    0.192042     0.004307
NI394   NI        0.726660    0.382565    0.184531     0.004307
NI395   NI        0.754192    0.399305    0.220011     0.004307
NI396   NI        0.068310    0.449455    0.203656     0.004307
NI397   NI        0.102333    0.416807    0.208205     0.004307
NI398   NI        0.101762    0.474791    0.181115     0.004307
NI399   NI        0.136746    0.414758    0.175189     0.004307
NI400   NI        0.139088    0.452119    0.204678     0.004307
NI401   NI        0.170158    0.420031    0.208067     0.004307
NI402   NI        0.172192    0.468404    0.175198     0.004307
NI403   NI        0.202193    0.421150    0.172613     0.004307
NI404   NI        0.203780    0.461677    0.207742     0.004307
PD405   PD        0.236315    0.423606    0.208014     0.005394
NI406   NI        0.236519    0.455800    0.175106     0.004307
NI407   NI        0.275056    0.417285    0.182953     0.004307
NI408   NI        0.261362    0.462873    0.215294     0.004307
PD409   PD        0.313047    0.413229    0.214329     0.005394
NI410   NI        0.316115    0.475033    0.169048     0.004307
NI411   NI        0.340812    0.418573    0.176741     0.004307
PD412   PD        0.338904    0.455515    0.206787     0.005394
PD413   PD        0.395251    0.421287    0.197159     0.005394
PD414   PD        0.373255    0.455515    0.173304     0.005394
PD415   PD        0.409262    0.422188    0.175285     0.005394
PD416   PD        0.428193    0.459540    0.222405     0.005394
PD417   PD        0.441211    0.428588    0.208901     0.005394
PD418   PD        0.440286    0.458929    0.171704     0.005394
NI419   NI        0.492643    0.418602    0.159231     0.004307
NI420   NI        0.499765    0.453696    0.201969     0.004307
PD421   PD        0.534526    0.425444    0.215853     0.005394
NI422   NI        0.518189    0.482430    0.193742     0.004307
NI423   NI        0.558490    0.426845    0.170022     0.004307
NI424   NI        0.566775    0.457466    0.219545     0.004307
NI425   NI        0.591514    0.427008    0.195744     0.004307
NI426   NI        0.600006    0.449399    0.186738     0.004307
NI427   NI        0.629069    0.422248    0.166509     0.004307
NI428   NI        0.632098    0.453848    0.199911     0.004307
NI429   NI        0.673369    0.416264    0.208742     0.004307
NI430   NI        0.665754    0.451265    0.176047     0.004307
NI431   NI        0.705273    0.422609    0.173033     0.004307
NI432   NI        0.676587    0.462536    0.219655     0.004307
NI433   NI        0.721461    0.441617    0.219042     0.004307
NI434   NI        0.716537    0.464045    0.187946     0.004307
NI435   NI        0.757098    0.461959    0.229889     0.004307
NI436   NI        0.107528    0.502806    0.219950     0.004307
NI437   NI        0.141137    0.495870    0.188696     0.004307
NI438   NI        0.149667    0.524027    0.230173     0.004307
NI439   NI        0.185953    0.503012    0.206250     0.004307
NI440   NI        0.175608    0.541641    0.175757     0.004307
NI441   NI        0.182705    0.520097    0.181906     0.004307
NI442   NI        0.208333    0.535664    0.210515     0.004307
NI443   NI        0.236167    0.492283    0.207863     0.004307
NI444   NI        0.238569    0.534625    0.180581     0.004307
NI445   NI        0.270696    0.489503    0.176764     0.004307
NI446   NI        0.277069    0.535884    0.210515     0.004307
NI447   NI        0.306802    0.492362    0.205875     0.004307
NI448   NI        0.305155    0.528398    0.171797     0.004307
NI449   NI        0.363842    0.476303    0.169033     0.004307
PD450   PD        0.352929    0.538404    0.216867     0.005394
PD451   PD        0.382046    0.498750    0.215780     0.005394
NI452   NI        0.388147    0.535215    0.183991     0.004307
NI453   NI        0.416565    0.491695    0.157827     0.004307
NI454   NI        0.421744    0.535094    0.204209     0.004307
NI455   NI        0.456280    0.494957    0.200583     0.004307
PD456   PD        0.434350    0.529000    0.179078     0.005394
NI457   NI        0.468499    0.498351    0.167420     0.004307
PD458   PD        0.475027    0.525918    0.206044     0.005394
PD459   PD        0.534124    0.484240    0.217637     0.005394
PD460   PD        0.530057    0.529936    0.174690     0.005394
NI461   NI        0.564078    0.498558    0.181044     0.004307
PD462   PD        0.563136    0.519409    0.216016     0.005394
NI463   NI        0.600844    0.488898    0.211941     0.004307
NI464   NI        0.596044    0.532127    0.191517     0.004307
NI465   NI        0.621813    0.502875    0.165874     0.004307
NI466   NI        0.626147    0.525968    0.207902     0.004307
NI467   NI        0.666549    0.494812    0.194462     0.004307
NI468   NI        0.663460    0.540029    0.182793     0.004307
NI469   NI        0.691382    0.486570    0.154723     0.004307
NI470   NI        0.703506    0.523623    0.190492     0.004307
NI471   NI        0.719594    0.490042    0.219397     0.004307
NI472   NI        0.111924    0.551857    0.224427     0.004307
NI473   NI        0.146818    0.559427    0.194363     0.004307
NI474   NI        0.120319    0.599128    0.228357     0.004307
NI475   NI        0.163965    0.548867    0.221542     0.004307
NI476   NI        0.181697    0.590172    0.184137     0.004307
NI477   NI        0.214611    0.556621    0.186604     0.004307
NI478   NI        0.221203    0.602486    0.190869     0.004307
NI479   NI        0.243721    0.569487    0.212508     0.004307
NI480   NI        0.236893    0.599633    0.173198     0.004307
NI481   NI        0.272497    0.572086    0.182558     0.004307
NI482   NI        0.263937    0.595627    0.201835     0.004307
NI483   NI        0.313715    0.565211    0.206212     0.004307
NI484   NI        0.333492    0.598241    0.178313     0.004307
NI485   NI        0.345952    0.552212    0.171439     0.004307
PD486   PD        0.343577    0.585776    0.221624     0.005394
PD487   PD        0.388428    0.565404    0.220741     0.005394
NI488   NI        0.378769    0.597530    0.193608     0.004307
PD489   PD        0.415219    0.574850    0.179337     0.005394
NI490   NI        0.412447    0.606638    0.205479     0.004307
NI491   NI        0.455313    0.572821    0.209437     0.004307
NI492   NI        0.458086    0.590567    0.194589     0.004307
NI493   NI        0.496603    0.560246    0.185024     0.004307
PD494   PD        0.490523    0.595411    0.224185     0.005394
NI495   NI        0.516236    0.582226    0.207657     0.004307
NI496   NI        0.511384    0.621311    0.159648     0.004307
NI497   NI        0.546689    0.554221    0.179427     0.004307
NI498   NI        0.559213    0.602099    0.218964     0.004307
NI499   NI        0.617574    0.559371    0.188783     0.004307
NI500   NI        0.586545    0.590419    0.180331     0.004307
NI501   NI        0.627236    0.568415    0.183832     0.004307
NI502   NI        0.620682    0.607224    0.208645     0.004307
NI503   NI        0.662326    0.542843    0.208658     0.004307
NI504   NI        0.664731    0.599363    0.190278     0.004307
NI505   NI        0.685083    0.562848    0.171593     0.004307
NI506   NI        0.701488    0.606269    0.208272     0.004307
NI507   NI        0.725548    0.566212    0.220163     0.004307
NI508   NI        0.172325    0.631579    0.216368     0.004307
NI509   NI        0.211196    0.630851    0.195470     0.004307
NI510   NI        0.206897    0.663555    0.221280     0.004307
NI511   NI        0.241491    0.626510    0.226876     0.004307
NI512   NI        0.235571    0.667586    0.174575     0.004307
NI513   NI        0.269499    0.634738    0.170421     0.004307
NI514   NI        0.271405    0.663900    0.215290     0.004307
NI515   NI        0.324474    0.649952    0.209044     0.004307
NI516   NI        0.315468    0.656164    0.187968     0.004307
NI517   NI        0.353093    0.631799    0.186414     0.004307
NI518   NI        0.349272    0.669319    0.220196     0.004307
NI519   NI        0.386897    0.628437    0.221131     0.004307
NI520   NI        0.374724    0.672909    0.179418     0.004307
NI521   NI        0.403358    0.629162    0.170034     0.004307
NI522   NI        0.407751    0.679514    0.206342     0.004307
NI523   NI        0.450230    0.621919    0.219377     0.004307
NI524   NI        0.455911    0.668622    0.194837     0.004307
NI525   NI        0.484814    0.629799    0.188057     0.004307
NI526   NI        0.489046    0.662770    0.219922     0.004307
NI527   NI        0.527820    0.636236    0.205975     0.004307
NI528   NI        0.545809    0.655123    0.154578     0.004307
NI529   NI        0.566059    0.642844    0.196975     0.004307
NI530   NI        0.555201    0.671795    0.209545     0.004307
NI531   NI        0.593204    0.633547    0.233812     0.004307
NI532   NI        0.589864    0.678277    0.177715     0.004307
NI533   NI        0.613937    0.611335    0.198459     0.004307
NI534   NI        0.622169    0.655518    0.216183     0.004307
NI535   NI        0.660441    0.626295    0.217712     0.004307
NI536   NI        0.241826    0.700425    0.217999     0.004307
NI537   NI        0.282556    0.730450    0.149233     0.004307
NI538   NI        0.274193    0.741721    0.220886     0.004307
NI539   NI        0.308355    0.693489    0.221091     0.004307
NI540   NI        0.366321    0.720232    0.170776     0.004307
NI541   NI        0.346845    0.724329    0.222647     0.004307
NI542   NI        0.378115    0.706813    0.214390     0.004307
NI543   NI        0.384521    0.735543    0.182297     0.004307
NI544   NI        0.393572    0.731798    0.186773     0.004307
NI545   NI        0.414378    0.742907    0.217954     0.004307
NI546   NI        0.447937    0.710729    0.216540     0.004307
NI547   NI        0.449718    0.740376    0.185181     0.004307
NI548   NI        0.483910    0.704447    0.184868     0.004307
NI549   NI        0.498097    0.728628    0.210283     0.004307
NI550   NI        0.519801    0.694911    0.221059     0.004307
NI551   NI        0.567891    0.700811    0.172349     0.004307
NI552   NI        0.550526    0.727672    0.216459     0.004307
NI553   NI        0.589785    0.704949    0.217826     0.004307
NI554   NI        0.381196    0.772706    0.218748     0.004307
NI555   NI        0.449994    0.775147    0.218210     0.004307
NI556   NI        0.347396    0.047048    0.285106     0.004307
NI557   NI        0.399411    0.026916    0.258069     0.004307
NI558   NI        0.489186    0.043599    0.291149     0.004307
NI559   NI        0.208191    0.090575    0.276355     0.004307
NI560   NI        0.241540    0.067112    0.305391     0.004307
NI561   NI        0.244783    0.113027    0.254110     0.004307
NI562   NI        0.281043    0.117093    0.288207     0.004307
NI563   NI        0.315481    0.083339    0.286691     0.004307
NI564   NI        0.313014    0.116664    0.252919     0.004307
NI565   NI        0.356336    0.077431    0.204575     0.004307
NI566   NI        0.338419    0.110182    0.278165     0.004307
NI567   NI        0.384937    0.080784    0.288260     0.004307
NI568   NI        0.403670    0.090149    0.241726     0.004307
NI569   NI        0.440347    0.060625    0.243076     0.004307
NI570   NI        0.420571    0.113217    0.288843     0.004307
NI571   NI        0.465237    0.084955    0.300722     0.004307
NI572   NI        0.478367    0.091250    0.240379     0.004307
NI573   NI        0.486199    0.078261    0.256349     0.004307
NI574   NI        0.498194    0.109946    0.265959     0.004307
NI575   NI        0.522435    0.077147    0.289342     0.004307
NI576   NI        0.526633    0.098145    0.237989     0.004307
PD577   PD        0.556891    0.112868    0.289881     0.005394
NI578   NI        0.591413    0.079408    0.291912     0.004307
NI579   NI        0.591432    0.112851    0.256764     0.004307
NI580   NI        0.620802    0.114758    0.290156     0.004307
NI581   NI        0.143237    0.182777    0.289884     0.004307
NI582   NI        0.179058    0.144174    0.300143     0.004307
NI583   NI        0.178255    0.184155    0.255130     0.004307
NI584   NI        0.203328    0.138418    0.258585     0.004307
NI585   NI        0.205612    0.175024    0.273342     0.004307
NI586   NI        0.251454    0.165087    0.287960     0.004307
NI587   NI        0.240113    0.176491    0.242308     0.004307
NI588   NI        0.280367    0.151364    0.252791     0.004307
PD589   PD        0.273904    0.176571    0.277479     0.005394
PD590   PD        0.312089    0.150797    0.287968     0.005394
PD591   PD        0.315825    0.184583    0.253046     0.005394
NI592   NI        0.352912    0.144434    0.232528     0.004307
PD593   PD        0.349838    0.181429    0.289593     0.005394
NI594   NI        0.387483    0.163260    0.295406     0.004307
NI595   NI        0.378060    0.176020    0.253357     0.004307
NI596   NI        0.419150    0.149800    0.255058     0.004307
NI597   NI        0.434915    0.200504    0.278412     0.004307
NI598   NI        0.451322    0.156407    0.292945     0.004307
PD599   PD        0.457998    0.185583    0.254943     0.005394
NI600   NI        0.485821    0.157062    0.230752     0.004307
NI601   NI        0.474844    0.171645    0.263249     0.004307
NI602   NI        0.509233    0.135944    0.266754     0.004307
PD603   PD        0.521879    0.179497    0.255389     0.005394
NI604   NI        0.556308    0.145504    0.255306     0.004307
PD605   PD        0.558588    0.180576    0.289807     0.005394
NI606   NI        0.578818    0.154858    0.280157     0.004307
NI607   NI        0.581688    0.170866    0.234627     0.004307
NI608   NI        0.622264    0.148656    0.254963     0.004307
NI609   NI        0.642635    0.168889    0.293165     0.004307
NI610   NI        0.682259    0.139375    0.275873     0.004307
NI611   NI        0.649494    0.155050    0.245480     0.004307
NI612   NI        0.687857    0.184312    0.288767     0.004307
NI613   NI        0.076875    0.248548    0.287913     0.004307
NI614   NI        0.108674    0.214819    0.290193     0.004307
NI615   NI        0.111624    0.249220    0.254695     0.004307
NI616   NI        0.144335    0.215237    0.253106     0.004307
NI617   NI        0.137264    0.248607    0.275726     0.004307
NI618   NI        0.169768    0.213387    0.272653     0.004307
NI619   NI        0.173721    0.247603    0.242639     0.004307
NI620   NI        0.207851    0.213709    0.242483     0.004307
PD621   PD        0.205673    0.246382    0.278438     0.005394
NI622   NI        0.228621    0.213253    0.285386     0.004307
NI623   NI        0.246933    0.251779    0.256175     0.004307
PD624   PD        0.274222    0.211739    0.244684     0.005394
PD625   PD        0.275499    0.246121    0.278231     0.005394
PD626   PD        0.307057    0.211520    0.279521     0.005394
PD627   PD        0.309748    0.245324    0.245384     0.005394
PD628   PD        0.348815    0.218892    0.256781     0.005394
PD629   PD        0.354229    0.245198    0.288931     0.005394
PD630   PD        0.387837    0.208832    0.287695     0.005394
PD631   PD        0.378913    0.235588    0.246875     0.005394
NI632   NI        0.416957    0.208400    0.246644     0.004307
PD633   PD        0.411935    0.243687    0.280923     0.005394
NI634   NI        0.445983    0.207167    0.283440     0.004307
PD635   PD        0.462695    0.254250    0.250577     0.005394
PD636   PD        0.494777    0.217068    0.251004     0.005394
NI637   NI        0.485892    0.239272    0.253193     0.004307
PD638   PD        0.515929    0.217682    0.274994     0.005394
PD639   PD        0.533308    0.247768    0.247290     0.005394
NI640   NI        0.563943    0.211344    0.244867     0.004307
PD641   PD        0.556966    0.243561    0.291744     0.005394
NI642   NI        0.590319    0.203247    0.267941     0.004307
PD643   PD        0.589931    0.250701    0.255923     0.005394
NI644   NI        0.646680    0.217829    0.211675     0.004307
PD645   PD        0.623823    0.249679    0.288875     0.005394
PD646   PD        0.657739    0.216883    0.289299     0.005394
NI647   NI        0.668717    0.260376    0.216675     0.004307
NI648   NI        0.696307    0.211675    0.266273     0.004307
NI649   NI        0.705388    0.240000    0.281741     0.004307
NI650   NI        0.739824    0.208042    0.279131     0.004307
NI651   NI        0.726433    0.248812    0.255292     0.004307
NI652   NI        0.760153    0.248726    0.288818     0.004307
NI653   NI        0.063035    0.329229    0.284897     0.004307
NI654   NI        0.082174    0.285619    0.268204     0.004307
NI655   NI        0.112857    0.320873    0.254562     0.004307
NI656   NI        0.146058    0.284011    0.254347     0.004307
PD657   PD        0.145664    0.318014    0.289639     0.005394
PD658   PD        0.179626    0.284349    0.290747     0.005394
NI659   NI        0.179231    0.318130    0.252009     0.004307
PD660   PD        0.207901    0.281914    0.245025     0.005394
PD661   PD        0.210975    0.321507    0.293215     0.005394
PD662   PD        0.221268    0.263178    0.287195     0.005394
NI663   NI        0.245753    0.299190    0.269388     0.004307
PD664   PD        0.274341    0.280110    0.243628     0.005394
PD665   PD        0.278671    0.327310    0.290933     0.005394
PD666   PD        0.309620    0.278082    0.276430     0.005394
PD667   PD        0.310989    0.312647    0.246124     0.005394
PD668   PD        0.368030    0.277003    0.242360     0.005394
PD669   PD        0.336669    0.321357    0.286121     0.005394
PD670   PD        0.379520    0.277131    0.266160     0.005394
PD671   PD        0.384459    0.312077    0.239229     0.005394
PD672   PD        0.415010    0.276975    0.248896     0.005394
PD673   PD        0.407882    0.308750    0.280169     0.005394
PD674   PD        0.452520    0.291537    0.275635     0.005394
PD675   PD        0.448346    0.310808    0.255402     0.005394
PD676   PD        0.499938    0.284354    0.245194     0.005394
PD677   PD        0.482785    0.324704    0.263624     0.005394
PD678   PD        0.536600    0.283603    0.275737     0.005394
PD679   PD        0.526890    0.327630    0.240795     0.005394
NI680   NI        0.558520    0.292600    0.244715     0.004307
PD681   PD        0.571498    0.315771    0.285129     0.005394
PD682   PD        0.589080    0.283570    0.291186     0.005394
NI683   NI        0.608155    0.311130    0.242370     0.004307
PD684   PD        0.622960    0.286069    0.255862     0.005394
NI685   NI        0.643190    0.309032    0.278984     0.004307
PD686   PD        0.657708    0.284892    0.287541     0.005394
PD687   PD        0.655431    0.320683    0.253883     0.005394
NI688   NI        0.687967    0.285833    0.253476     0.004307
PD689   PD        0.689716    0.319624    0.289261     0.005394
PD690   PD        0.726299    0.283603    0.289965     0.005394
NI691   NI        0.726979    0.318038    0.252749     0.004307
NI692   NI        0.763811    0.316039    0.288874     0.004307
NI693   NI        0.042090    0.339634    0.285289     0.004307
NI694   NI        0.076681    0.352797    0.254408     0.004307
NI695   NI        0.067138    0.377954    0.293145     0.004307
NI696   NI        0.105134    0.350808    0.277997     0.004307
NI697   NI        0.104166    0.383576    0.239764     0.004307
NI698   NI        0.138925    0.349930    0.243131     0.004307
NI699   NI        0.129262    0.401457    0.293929     0.004307
PD700   PD        0.166983    0.371737    0.291762     0.005394
NI701   NI        0.169402    0.397826    0.250227     0.004307
NI702   NI        0.220604    0.359280    0.243111     0.004307
PD703   PD        0.207600    0.390408    0.277843     0.005394
PD704   PD        0.242860    0.346354    0.284194     0.005394
PD705   PD        0.240948    0.394333    0.259374     0.005394
PD706   PD        0.276017    0.349586    0.249558     0.005394
PD707   PD        0.268397    0.379453    0.270648     0.005394
PD708   PD        0.310857    0.360504    0.277815     0.005394
PD709   PD        0.312447    0.387418    0.255328     0.005394
PD710   PD        0.336649    0.352372    0.236878     0.005394
PD711   PD        0.348851    0.386551    0.289189     0.005394
PD712   PD        0.378613    0.360080    0.284040     0.005394
PD713   PD        0.390246    0.394258    0.235368     0.005394
PD714   PD        0.415802    0.346939    0.254264     0.005394
PD715   PD        0.415843    0.379598    0.288370     0.005394
PD716   PD        0.455383    0.354203    0.289919     0.005394
PD717   PD        0.447767    0.397707    0.258653     0.005394
PD718   PD        0.482715    0.343727    0.251235     0.005394
PD719   PD        0.478065    0.404550    0.282956     0.005394
PD720   PD        0.517958    0.360611    0.270880     0.005394
PD721   PD        0.515809    0.403304    0.251871     0.005394
PD722   PD        0.554832    0.353184    0.256691     0.005394
PD723   PD        0.562270    0.396135    0.275882     0.005394
PD724   PD        0.600498    0.366660    0.271152     0.005394
PD725   PD        0.577243    0.396144    0.254195     0.005394
NI726   NI        0.634693    0.359955    0.238701     0.004307
NI727   NI        0.643899    0.382040    0.280927     0.004307
PD728   PD        0.663029    0.350692    0.286229     0.005394
NI729   NI        0.672435    0.387374    0.242862     0.004307
PD730   PD        0.694083    0.352265    0.253364     0.005394
PD731   PD        0.691109    0.385474    0.287295     0.005394
NI732   NI        0.722978    0.360732    0.266937     0.004307
NI733   NI        0.721772    0.387312    0.252954     0.004307
NI734   NI        0.756898    0.333244    0.287263     0.004307
NI735   NI        0.764379    0.383722    0.288111     0.004307
NI736   NI        0.796026    0.346516    0.285828     0.004307
NI737   NI        0.041124    0.420607    0.290049     0.004307
NI738   NI        0.079833    0.422173    0.253071     0.004307
NI739   NI        0.078023    0.454749    0.287911     0.004307
NI740   NI        0.100996    0.418030    0.274855     0.004307
NI741   NI        0.077139    0.459005    0.249429     0.004307
NI742   NI        0.125252    0.421283    0.248404     0.004307
NI743   NI        0.135523    0.452737    0.275698     0.004307
NI744   NI        0.170356    0.422615    0.277086     0.004307
NI745   NI        0.169335    0.455152    0.241364     0.004307
NI746   NI        0.203191    0.428082    0.242826     0.004307
PD747   PD        0.208704    0.470175    0.297774     0.005394
PD748   PD        0.246175    0.418650    0.289123     0.005394
PD749   PD        0.237735    0.458838    0.240293     0.005394
PD750   PD        0.272711    0.426971    0.242698     0.005394
PD751   PD        0.282610    0.466233    0.280455     0.005394
PD752   PD        0.312514    0.429851    0.295679     0.005394
PD753   PD        0.319979    0.455367    0.251978     0.005394
PD754   PD        0.343250    0.430838    0.244578     0.005394
PD755   PD        0.338977    0.461715    0.276417     0.005394
PD756   PD        0.379723    0.406641    0.278287     0.005394
PD757   PD        0.367405    0.446405    0.243935     0.005394
PD758   PD        0.408171    0.421231    0.241154     0.005394
PD759   PD        0.409067    0.459819    0.292323     0.005394
PD760   PD        0.437331    0.421869    0.279206     0.005394
PD761   PD        0.454234    0.458473    0.254541     0.005394
PD762   PD        0.477943    0.426200    0.239382     0.005394
PD763   PD        0.486608    0.452957    0.288799     0.005394
PD764   PD        0.520889    0.422030    0.292024     0.005394
PD765   PD        0.511605    0.452686    0.247555     0.005394
PD766   PD        0.550644    0.436914    0.258749     0.005394
PD767   PD        0.546878    0.458074    0.269138     0.005394
PD768   PD        0.588099    0.421553    0.292768     0.005394
PD769   PD        0.593195    0.453279    0.255112     0.005394
PD770   PD        0.636906    0.422143    0.249565     0.005394
NI771   NI        0.629676    0.460323    0.283894     0.004307
NI772   NI        0.676671    0.430218    0.276209     0.004307
NI773   NI        0.675573    0.453241    0.223574     0.004307
NI774   NI        0.711324    0.417190    0.236431     0.004307
PD775   PD        0.691906    0.451828    0.289116     0.005394
NI776   NI        0.727314    0.420749    0.286709     0.004307
NI777   NI        0.740607    0.453136    0.243491     0.004307
NI778   NI        0.756237    0.423646    0.251153     0.004307
NI779   NI        0.761270    0.456400    0.288732     0.004307
NI780   NI        0.796703    0.419198    0.287378     0.004307
NI781   NI        0.037709    0.500150    0.289049     0.004307
NI782   NI        0.080915    0.511355    0.260892     0.004307
NI783   NI        0.070053    0.538536    0.266628     0.004307
NI784   NI        0.108773    0.490911    0.294600     0.004307
NI785   NI        0.107798    0.524708    0.258884     0.004307
NI786   NI        0.133570    0.487431    0.239946     0.004307
NI787   NI        0.115510    0.526985    0.264953     0.004307
NI788   NI        0.167267    0.488959    0.276010     0.004307
NI789   NI        0.162191    0.524403    0.242149     0.004307
PD790   PD        0.208076    0.484076    0.251740     0.005394
PD791   PD        0.206432    0.516719    0.285472     0.005394
PD792   PD        0.255179    0.498036    0.287088     0.005394
PD793   PD        0.234549    0.522861    0.254128     0.005394
PD794   PD        0.274184    0.497622    0.243376     0.005394
PD795   PD        0.276615    0.535288    0.275483     0.005394
PD796   PD        0.304595    0.495051    0.278080     0.005394
PD797   PD        0.313292    0.552112    0.253980     0.005394
PD798   PD        0.343687    0.470754    0.249368     0.005394
PD799   PD        0.335895    0.524638    0.299508     0.005394
PD800   PD        0.386988    0.485862    0.262665     0.005394
PD801   PD        0.389141    0.518952    0.235136     0.005394
PD802   PD        0.431671    0.500166    0.249401     0.005394
PD803   PD        0.416980    0.518487    0.262898     0.005394
PD804   PD        0.447494    0.503348    0.268915     0.005394
PD805   PD        0.449512    0.542646    0.243375     0.005394
PD806   PD        0.488344    0.490980    0.230313     0.005394
PD807   PD        0.498534    0.533828    0.277395     0.005394
PD808   PD        0.511266    0.492507    0.273423     0.005394
PD809   PD        0.533360    0.532948    0.256442     0.005394
PD810   PD        0.560058    0.492903    0.257038     0.005394
PD811   PD        0.574484    0.514167    0.272259     0.005394
NI812   NI        0.590353    0.499522    0.270238     0.004307
NI813   NI        0.595769    0.537713    0.245244     0.004307
NI814   NI        0.633655    0.496861    0.247400     0.004307
PD815   PD        0.625035    0.524290    0.286687     0.005394
PD816   PD        0.656619    0.490568    0.290363     0.005394
NI817   NI        0.659600    0.547443    0.256025     0.004307
NI818   NI        0.693897    0.479232    0.261427     0.004307
PD819   PD        0.691493    0.526583    0.289088     0.005394
NI820   NI        0.739785    0.496025    0.261177     0.004307
NI821   NI        0.738775    0.525274    0.244729     0.004307
NI822   NI        0.767921    0.494315    0.227024     0.004307
NI823   NI        0.752834    0.524987    0.287150     0.004307
NI824   NI        0.801867    0.465070    0.277870     0.004307
NI825   NI        0.072407    0.603478    0.286474     0.004307
NI826   NI        0.102704    0.571457    0.270146     0.004307
NI827   NI        0.109130    0.592932    0.253068     0.004307
NI828   NI        0.144942    0.563768    0.258321     0.004307
NI829   NI        0.142097    0.593792    0.270419     0.004307
NI830   NI        0.184330    0.570230    0.271267     0.004307
NI831   NI        0.192369    0.610077    0.246976     0.004307
NI832   NI        0.198212    0.552503    0.254341     0.004307
NI833   NI        0.230010    0.619739    0.276020     0.004307
PD834   PD        0.233608    0.557061    0.286634     0.005394
NI835   NI        0.232520    0.586395    0.251841     0.004307
NI836   NI        0.279909    0.568977    0.243463     0.004307
PD837   PD        0.263731    0.595760    0.286247     0.005394
PD838   PD        0.317301    0.560866    0.273827     0.005394
PD839   PD        0.314142    0.601295    0.252836     0.005394
NI840   NI        0.338311    0.584918    0.230796     0.004307
PD841   PD        0.355755    0.589264    0.276104     0.005394
PD842   PD        0.384627    0.552128    0.265854     0.005394
PD843   PD        0.387234    0.586839    0.240143     0.005394
PD844   PD        0.427320    0.559627    0.246999     0.005394
PD845   PD        0.433173    0.605475    0.299841     0.005394
PD846   PD        0.454204    0.555486    0.276062     0.005394
PD847   PD        0.453803    0.598806    0.256686     0.005394
PD848   PD        0.491352    0.557654    0.254386     0.005394
PD849   PD        0.484735    0.591608    0.290816     0.005394
PD850   PD        0.520073    0.562198    0.290683     0.005394
NI851   NI        0.528364    0.587759    0.251661     0.004307
NI852   NI        0.571814    0.565583    0.267308     0.004307
NI853   NI        0.544104    0.602444    0.267395     0.004307
NI854   NI        0.603354    0.564837    0.285329     0.004307
NI855   NI        0.591254    0.591488    0.253061     0.004307
NI856   NI        0.630686    0.565239    0.235229     0.004307
NI857   NI        0.639412    0.595704    0.287374     0.004307
NI858   NI        0.654694    0.562758    0.292313     0.004307
NI859   NI        0.657648    0.600281    0.240238     0.004307
NI860   NI        0.677476    0.558753    0.248172     0.004307
NI861   NI        0.691067    0.597796    0.290364     0.004307
NI862   NI        0.724820    0.558619    0.287715     0.004307
NI863   NI        0.733616    0.588234    0.237028     0.004307
NI864   NI        0.782778    0.598201    0.305472     0.004307
NI865   NI        0.100034    0.618936    0.272555     0.004307
NI866   NI        0.121932    0.647879    0.224320     0.004307
NI867   NI        0.136189    0.662758    0.292956     0.004307
NI868   NI        0.175844    0.639760    0.279241     0.004307
NI869   NI        0.166326    0.646514    0.240566     0.004307
NI870   NI        0.202013    0.647468    0.248484     0.004307
NI871   NI        0.208878    0.673510    0.287112     0.004307
NI872   NI        0.241634    0.638458    0.284086     0.004307
NI873   NI        0.247539    0.665361    0.245594     0.004307
NI874   NI        0.285924    0.636696    0.234796     0.004307
NI875   NI        0.265215    0.670534    0.263005     0.004307
NI876   NI        0.308257    0.647623    0.271016     0.004307
NI877   NI        0.314031    0.669553    0.249948     0.004307
NI878   NI        0.331531    0.634612    0.253552     0.004307
PD879   PD        0.349366    0.669087    0.285732     0.005394
NI880   NI        0.393297    0.619775    0.276167     0.004307
NI881   NI        0.377137    0.672795    0.245879     0.004307
PD882   PD        0.416539    0.630065    0.258667     0.005394
PD883   PD        0.416093    0.671107    0.279360     0.005394
PD884   PD        0.453943    0.639181    0.287742     0.005394
NI885   NI        0.449332    0.673085    0.246419     0.004307
NI886   NI        0.499236    0.639998    0.263043     0.004307
NI887   NI        0.479322    0.673601    0.286013     0.004307
NI888   NI        0.511313    0.642940    0.271481     0.004307
NI889   NI        0.517315    0.663785    0.258099     0.004307
NI890   NI        0.554435    0.641541    0.249808     0.004307
NI891   NI        0.556228    0.673644    0.286977     0.004307
NI892   NI        0.579032    0.631090    0.278043     0.004307
NI893   NI        0.589117    0.673305    0.250512     0.004307
NI894   NI        0.620523    0.648916    0.230371     0.004307
NI895   NI        0.623930    0.680614    0.282199     0.004307
NI896   NI        0.659811    0.634006    0.300056     0.004307
NI897   NI        0.654321    0.661497    0.251134     0.004307
NI898   NI        0.688915    0.638199    0.243153     0.004307
NI899   NI        0.703012    0.651237    0.285659     0.004307
NI900   NI        0.745016    0.627779    0.310404     0.004307
NI901   NI        0.173140    0.687472    0.279460     0.004307
NI902   NI        0.213865    0.697368    0.250704     0.004307
NI903   NI        0.205129    0.721648    0.288328     0.004307
NI904   NI        0.245254    0.701554    0.288854     0.004307
NI905   NI        0.245146    0.746608    0.222213     0.004307
NI906   NI        0.283513    0.696701    0.236570     0.004307
NI907   NI        0.278565    0.737228    0.291173     0.004307
NI908   NI        0.304240    0.717861    0.274766     0.004307
NI909   NI        0.301191    0.739844    0.224041     0.004307
NI910   NI        0.343458    0.706592    0.250653     0.004307
PD911   PD        0.347742    0.737382    0.285921     0.005394
PD912   PD        0.381322    0.705052    0.283186     0.005394
NI913   NI        0.378797    0.741230    0.250892     0.004307
NI914   NI        0.411846    0.706487    0.246901     0.004307
NI915   NI        0.415022    0.738113    0.282659     0.004307
NI916   NI        0.449034    0.707913    0.275999     0.004307
NI917   NI        0.470184    0.741413    0.246854     0.004307
NI918   NI        0.469746    0.698376    0.257718     0.004307
PD919   PD        0.485466    0.737181    0.287000     0.005394
PD920   PD        0.519148    0.701610    0.288039     0.005394
NI921   NI        0.519503    0.734338    0.252747     0.004307
NI922   NI        0.553075    0.700293    0.253692     0.004307
NI923   NI        0.554584    0.736174    0.284936     0.004307
NI924   NI        0.588227    0.701740    0.286002     0.004307
NI925   NI        0.582839    0.722103    0.247667     0.004307
NI926   NI        0.620300    0.692117    0.253711     0.004307
NI927   NI        0.628619    0.748937    0.313506     0.004307
NI928   NI        0.649902    0.695911    0.290986     0.004307
NI929   NI        0.232722    0.745340    0.275956     0.004307
NI930   NI        0.290301    0.768350    0.277244     0.004307
NI931   NI        0.344142    0.771891    0.253325     0.004307
NI932   NI        0.346524    0.805604    0.290321     0.004307
NI933   NI        0.378867    0.771368    0.286919     0.004307
NI934   NI        0.435937    0.768135    0.264167     0.004307
NI935   NI        0.415152    0.805432    0.287737     0.004307
NI936   NI        0.451171    0.770118    0.285986     0.004307
NI937   NI        0.472675    0.788806    0.238617     0.004307
NI938   NI        0.497524    0.812846    0.277939     0.004307
NI939   NI        0.519387    0.769765    0.284216     0.004307
NI940   NI        0.602765    0.785511    0.297720     0.004307
NI941   NI        0.282335    0.045876    0.354788     0.004307
NI942   NI        0.329470    0.035543    0.300826     0.004307
NI943   NI        0.359717    0.018878    0.330848     0.004307
NI944   NI        0.399142    0.033293    0.307520     0.004307
NI945   NI        0.419630    0.046915    0.354193     0.004307
NI946   NI        0.454272    0.044273    0.324094     0.004307
NI947   NI        0.488463    0.043714    0.358341     0.004307
NI948   NI        0.533239    0.019855    0.316460     0.004307
NI949   NI        0.556770    0.045642    0.359856     0.004307
NI950   NI        0.168686    0.111592    0.310871     0.004307
NI951   NI        0.222510    0.093675    0.342817     0.004307
NI952   NI        0.252209    0.078618    0.356370     0.004307
PD953   PD        0.246907    0.112531    0.323245     0.005394
PD954   PD        0.283098    0.080483    0.321414     0.005394
NI955   NI        0.270073    0.108272    0.346585     0.004307
PD956   PD        0.315500    0.079860    0.355403     0.005394
NI957   NI        0.306534    0.130070    0.316550     0.004307
NI958   NI        0.332023    0.054373    0.341111     0.004307
PD959   PD        0.349169    0.113859    0.354981     0.005394
NI960   NI        0.412290    0.053736    0.350970     0.004307
PD961   PD        0.384570    0.113624    0.321280     0.005394
PD962   PD        0.419982    0.078086    0.322791     0.005394
PD963   PD        0.416062    0.111863    0.359600     0.005394
NI964   NI        0.461862    0.058887    0.341659     0.004307
NI965   NI        0.456003    0.122230    0.327821     0.004307
PD966   PD        0.488082    0.078862    0.323724     0.005394
PD967   PD        0.487353    0.110398    0.358533     0.005394
NI968   NI        0.513660    0.063882    0.361441     0.004307
PD969   PD        0.522513    0.111895    0.324322     0.005394
NI970   NI        0.560656    0.055620    0.313529     0.004307
NI971   NI        0.551562    0.091757    0.346911     0.004307
NI972   NI        0.591147    0.079405    0.360759     0.004307
PD973   PD        0.589664    0.113317    0.325920     0.005394
PD974   PD        0.625257    0.114227    0.359284     0.005394
NI975   NI        0.657029    0.112959    0.324598     0.004307
NI976   NI        0.109455    0.181259    0.321541     0.004307
NI977   NI        0.144024    0.147105    0.322580     0.004307
PD978   PD        0.144215    0.183539    0.356629     0.005394
NI979   NI        0.194590    0.135134    0.345033     0.004307
NI980   NI        0.159875    0.161451    0.328256     0.004307
NI981   NI        0.197761    0.139639    0.306070     0.004307
NI982   NI        0.187055    0.179336    0.358557     0.004307
PD983   PD        0.245829    0.148062    0.357189     0.005394
NI984   NI        0.237017    0.174820    0.307392     0.004307
PD985   PD        0.282093    0.146829    0.323784     0.005394
NI986   NI        0.254762    0.168811    0.357191     0.004307
PD987   PD        0.317825    0.148061    0.357404     0.005394
PD988   PD        0.308273    0.176640    0.311451     0.005394
PD989   PD        0.351446    0.148067    0.326751     0.005394
PD990   PD        0.351297    0.183305    0.357253     0.005394
PD991   PD        0.381721    0.149135    0.357865     0.005394
PD992   PD        0.383536    0.179455    0.324596     0.005394
PD993   PD        0.416468    0.151519    0.321925     0.005394
PD994   PD        0.399105    0.186940    0.351565     0.005394
NI995   NI        0.462620    0.148957    0.339759     0.004307
NI996   NI        0.459545    0.167631    0.308314     0.004307
NI997   NI        0.495459    0.141679    0.305954     0.004307
PD998   PD        0.496832    0.153427    0.363079     0.005394
PD999   PD        0.522511    0.146490    0.357635     0.005394
PD1000   PD        0.520357    0.178449    0.326622     0.005394
PD1001   PD        0.555027    0.148564    0.324889     0.005394
PD1002   PD        0.556758    0.181601    0.358259     0.005394
PD1003   PD        0.589577    0.148486    0.359193     0.005394
NI1004   NI        0.601180    0.159649    0.315734     0.004307
NI1005   NI        0.614182    0.135499    0.316726     0.004307
NI1006   NI        0.637731    0.158816    0.346694     0.004307
NI1007   NI        0.661709    0.147578    0.359142     0.004307
NI1008   NI        0.647287    0.165948    0.328714     0.004307
NI1009   NI        0.702987    0.131352    0.283824     0.004307
NI1010   NI        0.707994    0.165770    0.344386     0.004307
NI1011   NI        0.733719    0.172031    0.330577     0.004307
NI1012   NI        0.074760    0.252055    0.358172     0.004307
NI1013   NI        0.109008    0.215193    0.358167     0.004307
PD1014   PD        0.111502    0.250967    0.322377     0.005394
PD1015   PD        0.143925    0.216289    0.322700     0.005394
PD1016   PD        0.142006    0.249163    0.359524     0.005394
NI1017   NI        0.185294    0.225981    0.354733     0.004307
NI1018   NI        0.170103    0.244518    0.310888     0.004307
NI1019   NI        0.204116    0.207339    0.305661     0.004307
NI1020   NI        0.223811    0.242492    0.336503     0.004307
NI1021   NI        0.236574    0.215042    0.354303     0.004307
PD1022   PD        0.250812    0.254858    0.321962     0.005394
PD1023   PD        0.282678    0.215796    0.323036     0.005394
PD1024   PD        0.285878    0.248717    0.350569     0.005394
PD1025   PD        0.314502    0.217202    0.357939     0.005394
PD1026   PD        0.297688    0.257471    0.318344     0.005394
PD1027   PD        0.333803    0.226750    0.315698     0.005394
PD1028   PD        0.353151    0.252740    0.359479     0.005394
PD1029   PD        0.385395    0.216721    0.355918     0.005394
PD1030   PD        0.378598    0.240554    0.315535     0.005394
PD1031   PD        0.418227    0.216750    0.320719     0.005394
PD1032   PD        0.419875    0.250747    0.359013     0.005394
PD1033   PD        0.466275    0.234188    0.343959     0.005394
PD1034   PD        0.444268    0.253705    0.306523     0.005394
PD1035   PD        0.501915    0.217681    0.319641     0.005394
PD1036   PD        0.487614    0.249530    0.356775     0.005394
PD1037   PD        0.513988    0.217696    0.354631     0.005394
PD1038   PD        0.523062    0.247693    0.324407     0.005394
PD1039   PD        0.567756    0.218799    0.317044     0.005394
PD1040   PD        0.556354    0.249554    0.359498     0.005394
PD1041   PD        0.589575    0.216453    0.358606     0.005394
NI1042   NI        0.584909    0.256723    0.311183     0.004307
NI1043   NI        0.635965    0.207873    0.309721     0.004307
PD1044   PD        0.614408    0.258649    0.371878     0.005394
NI1045   NI        0.670489    0.202228    0.345016     0.004307
PD1046   PD        0.658213    0.250773    0.323097     0.005394
NI1047   NI        0.712833    0.207059    0.315462     0.004307
NI1048   NI        0.692727    0.242829    0.338593     0.004307
NI1049   NI        0.745693    0.193735    0.347764     0.004307
NI1050   NI        0.728032    0.250029    0.323034     0.004307
NI1051   NI        0.783876    0.236838    0.344691     0.004307
NI1052   NI        0.042556    0.286258    0.354961     0.004307
NI1053   NI        0.013271    0.343992    0.306230     0.004307
NI1054   NI        0.078281    0.285332    0.320052     0.004307
NI1055   NI        0.071438    0.335385    0.367414     0.004307
NI1056   NI        0.100828    0.297138    0.351754     0.004307
NI1057   NI        0.100998    0.309263    0.305309     0.004307
PD1058   PD        0.140753    0.283356    0.325885     0.005394
PD1059   PD        0.145481    0.318647    0.357426     0.005394
PD1060   PD        0.180474    0.276387    0.352036     0.005394
NI1061   NI        0.182452    0.288818    0.298805     0.004307
PD1062   PD        0.204001    0.277105    0.312696     0.005394
PD1063   PD        0.215662    0.320404    0.345777     0.005394
PD1064   PD        0.225842    0.277372    0.369826     0.005394
PD1065   PD        0.245948    0.321639    0.325348     0.005394
PD1066   PD        0.284490    0.282169    0.316796     0.005394
PD1067   PD        0.280864    0.321644    0.358864     0.005394
PD1068   PD        0.316400    0.285687    0.359133     0.005394
PD1069   PD        0.328326    0.324567    0.311190     0.005394
PD1070   PD        0.350689    0.283510    0.324088     0.005394
PD1071   PD        0.348443    0.320464    0.355835     0.005394
PD1072   PD        0.385597    0.282775    0.358231     0.005394
PD1073   PD        0.385133    0.318626    0.323406     0.005394
PD1074   PD        0.408043    0.283674    0.308415     0.005394
PD1075   PD        0.419153    0.315276    0.357206     0.005394
PD1076   PD        0.449716    0.300426    0.371151     0.005394
PD1077   PD        0.443367    0.313697    0.311121     0.005394
PD1078   PD        0.508806    0.293540    0.310772     0.005394
PD1079   PD        0.487363    0.316597    0.358397     0.005394
PD1080   PD        0.521330    0.282375    0.358097     0.005394
PD1081   PD        0.521518    0.316784    0.323598     0.005394
PD1082   PD        0.568546    0.266469    0.320177     0.005394
PD1083   PD        0.555798    0.316431    0.357606     0.005394
PD1084   PD        0.590134    0.283323    0.359197     0.005394
NI1085   NI        0.603896    0.318978    0.319671     0.004307
NI1086   NI        0.625007    0.277709    0.308075     0.004307
PD1087   PD        0.626017    0.319890    0.358326     0.005394
NI1088   NI        0.653626    0.281753    0.349228     0.004307
PD1089   PD        0.659117    0.320164    0.323803     0.005394
PD1090   PD        0.691399    0.287242    0.321987     0.005394
PD1091   PD        0.692884    0.318161    0.358706     0.005394
NI1092   NI        0.700450    0.285457    0.343645     0.004307
PD1093   PD        0.727439    0.318994    0.321998     0.005394
NI1094   NI        0.761022    0.285382    0.321640     0.004307
PD1095   PD        0.759961    0.320665    0.355137     0.005394
NI1096   NI        0.812032    0.269577    0.342472     0.004307
NI1097   NI        0.795242    0.316388    0.324720     0.004307
NI1098   NI        0.026498    0.359450    0.350563     0.004307
NI1099   NI        0.042811    0.386296    0.322589     0.004307
NI1100   NI        0.077653    0.353736    0.321760     0.004307
NI1101   NI        0.075889    0.387571    0.357879     0.004307
PD1102   PD        0.112250    0.353418    0.357620     0.005394
NI1103   NI        0.103662    0.380433    0.323882     0.004307
PD1104   PD        0.142735    0.353108    0.324708     0.005394
PD1105   PD        0.148823    0.386266    0.357818     0.005394
PD1106   PD        0.172267    0.354775    0.342644     0.005394
PD1107   PD        0.172240    0.388586    0.309997     0.005394
NI1108   NI        0.204041    0.365544    0.320845     0.004307
PD1109   PD        0.208404    0.400753    0.339659     0.005394
PD1110   PD        0.246996    0.355633    0.359397     0.005394
PD1111   PD        0.245027    0.396923    0.307876     0.005394
PD1112   PD        0.277354    0.357549    0.326359     0.005394
PD1113   PD        0.275635    0.394779    0.345286     0.005394
PD1114   PD        0.315709    0.355370    0.358948     0.005394
PD1115   PD        0.308969    0.396277    0.312002     0.005394
PD1116   PD        0.351087    0.352212    0.322513     0.005394
PD1117   PD        0.351526    0.388312    0.355614     0.005394
PD1118   PD        0.384506    0.352990    0.355802     0.005394
PD1119   PD        0.383103    0.387513    0.322493     0.005394
PD1120   PD        0.421379    0.351196    0.323522     0.005394
PD1121   PD        0.418135    0.386302    0.356776     0.005394
PD1122   PD        0.451545    0.348232    0.339195     0.005394
PD1123   PD        0.452966    0.387657    0.323467     0.005394
PD1124   PD        0.503508    0.352755    0.316896     0.005394
PD1125   PD        0.496872    0.388621    0.346079     0.005394
PD1126   PD        0.531515    0.340311    0.354390     0.005394
PD1127   PD        0.535146    0.389956    0.316434     0.005394
PD1128   PD        0.557592    0.350705    0.322976     0.005394
PD1129   PD        0.543560    0.387007    0.356260     0.005394
PD1130   PD        0.591679    0.351323    0.356147     0.005394
PD1131   PD        0.601988    0.401280    0.304535     0.005394
PD1132   PD        0.626989    0.354546    0.321713     0.005394
PD1133   PD        0.625538    0.387544    0.357948     0.005394
PD1134   PD        0.659265    0.353124    0.356283     0.005394
PD1135   PD        0.660593    0.387866    0.324010     0.005394
NI1136   NI        0.705242    0.361866    0.307380     0.004307
NI1137   NI        0.696654    0.376681    0.370264     0.004307
NI1138   NI        0.740200    0.357534    0.361900     0.004307
PD1139   PD        0.727861    0.386285    0.322091     0.005394
PD1140   PD        0.760262    0.352801    0.320618     0.005394
NI1141   NI        0.772221    0.387206    0.346966     0.004307
NI1142   NI        0.791755    0.350043    0.353024     0.004307
NI1143   NI        0.808981    0.374142    0.306873     0.004307
NI1144   NI        0.044215    0.421239    0.356514     0.004307
NI1145   NI        0.018521    0.476953    0.327246     0.004307
NI1146   NI        0.076575    0.420369    0.321762     0.004307
PD1147   PD        0.079267    0.454748    0.354060     0.005394
NI1148   NI        0.108264    0.415478    0.356417     0.004307
NI1149   NI        0.098532    0.483042    0.318783     0.004307
NI1150   NI        0.134211    0.411873    0.304141     0.004307
PD1151   PD        0.149370    0.456312    0.356601     0.005394
PD1152   PD        0.192142    0.445055    0.349708     0.005394
PD1153   PD        0.169784    0.455317    0.310095     0.005394
PD1154   PD        0.205792    0.424216    0.310776     0.005394
PD1155   PD        0.204756    0.459852    0.344507     0.005394
PD1156   PD        0.232751    0.442075    0.341868     0.005394
PD1157   PD        0.237759    0.462781    0.309547     0.005394
PD1158   PD        0.276017    0.427339    0.327535     0.005394
PD1159   PD        0.285804    0.458838    0.355271     0.005394
PD1160   PD        0.317796    0.421253    0.354049     0.005394
PD1161   PD        0.313386    0.451389    0.316083     0.005394
PD1162   PD        0.351964    0.421528    0.323172     0.005394
PD1163   PD        0.350161    0.453143    0.357415     0.005394
PD1164   PD        0.377373    0.422871    0.339430     0.005394
PD1165   PD        0.387855    0.456256    0.325708     0.005394
PD1166   PD        0.414802    0.421041    0.309608     0.005394
PD1167   PD        0.422841    0.466832    0.358328     0.005394
PD1168   PD        0.445387    0.438620    0.345312     0.005394
PD1169   PD        0.452079    0.468996    0.302153     0.005394
PD1170   PD        0.503610    0.426234    0.316707     0.005394
PD1171   PD        0.503405    0.460315    0.352500     0.005394
PD1172   PD        0.530556    0.421288    0.353988     0.005394
PD1173   PD        0.536836    0.458778    0.323996     0.005394
PD1174   PD        0.558013    0.418009    0.318788     0.005394
PD1175   PD        0.557484    0.458630    0.365954     0.005394
PD1176   PD        0.576335    0.420143    0.360240     0.005394
PD1177   PD        0.584100    0.455567    0.330098     0.005394
PD1178   PD        0.621694    0.423252    0.324206     0.005394
PD1179   PD        0.627713    0.453104    0.354523     0.005394
PD1180   PD        0.658559    0.421728    0.357102     0.005394
PD1181   PD        0.663258    0.455116    0.321545     0.005394
PD1182   PD        0.695236    0.419203    0.319924     0.005394
NI1183   NI        0.699072    0.451723    0.350704     0.004307
PD1184   PD        0.725812    0.422141    0.357611     0.005394
NI1185   NI        0.726905    0.453830    0.319694     0.004307
NI1186   NI        0.756651    0.422365    0.320233     0.004307
NI1187   NI        0.771863    0.466260    0.350345     0.004307
NI1188   NI        0.793003    0.424291    0.353372     0.004307
NI1189   NI        0.795777    0.456896    0.307817     0.004307
NI1190   NI        0.043544    0.487992    0.355363     0.004307
NI1191   NI        0.030842    0.530941    0.287135     0.004307
NI1192   NI        0.069359    0.481402    0.320595     0.004307
NI1193   NI        0.087558    0.518534    0.348531     0.004307
NI1194   NI        0.089225    0.488727    0.365144     0.004307
NI1195   NI        0.095040    0.527588    0.342288     0.004307
PD1196   PD        0.148096    0.491142    0.322730     0.005394
PD1197   PD        0.121034    0.519475    0.382663     0.005394
NI1198   NI        0.179571    0.491588    0.352595     0.004307
PD1199   PD        0.184456    0.523274    0.322737     0.005394
PD1200   PD        0.210537    0.483156    0.324493     0.005394
PD1201   PD        0.211879    0.521135    0.360890     0.005394
PD1202   PD        0.256167    0.505413    0.351055     0.005394
PD1203   PD        0.235576    0.524044    0.323270     0.005394
PD1204   PD        0.271114    0.499896    0.306149     0.005394
PD1205   PD        0.273238    0.528432    0.355138     0.005394
PD1206   PD        0.327918    0.469270    0.377749     0.005394
PD1207   PD        0.307302    0.530405    0.319514     0.005394
PD1208   PD        0.336549    0.493989    0.312487     0.005394
PD1209   PD        0.348629    0.521610    0.342451     0.005394
PD1210   PD        0.383329    0.489523    0.358780     0.005394
PD1211   PD        0.377063    0.547787    0.313611     0.005394
PD1212   PD        0.427499    0.502179    0.308008     0.005394
PD1213   PD        0.431874    0.514651    0.356468     0.005394
PD1214   PD        0.445229    0.503797    0.335369     0.005394
PD1215   PD        0.454077    0.522332    0.324008     0.005394
PD1216   PD        0.480009    0.486534    0.308177     0.005394
PD1217   PD        0.493775    0.543156    0.337882     0.005394
PD1218   PD        0.513487    0.497348    0.342667     0.005394
PD1219   PD        0.536675    0.533295    0.320364     0.005394
PD1220   PD        0.555732    0.490107    0.324835     0.005394
PD1221   PD        0.571351    0.534018    0.377048     0.005394
PD1222   PD        0.604413    0.493276    0.353863     0.005394
PD1223   PD        0.598504    0.511883    0.314067     0.005394
PD1224   PD        0.638231    0.488394    0.319023     0.005394
PD1225   PD        0.623385    0.524642    0.356211     0.005394
PD1226   PD        0.649184    0.498804    0.357762     0.005394
PD1227   PD        0.666780    0.522823    0.320678     0.005394
NI1228   NI        0.700014    0.488155    0.315304     0.004307
NI1229   NI        0.694193    0.542507    0.352802     0.004307
PD1230   PD        0.728057    0.486505    0.354699     0.005394
PD1231   PD        0.725201    0.526212    0.322299     0.005394
NI1232   NI        0.760148    0.489904    0.316543     0.004307
NI1233   NI        0.758275    0.525106    0.356295     0.004307
NI1234   NI        0.791147    0.511806    0.339987     0.004307
NI1235   NI        0.814302    0.538674    0.308660     0.004307
NI1236   NI        0.030824    0.549903    0.353108     0.004307
NI1237   NI        0.074975    0.559948    0.324504     0.004307
NI1238   NI        0.069690    0.610795    0.348818     0.004307
PD1239   PD        0.111182    0.557973    0.354452     0.005394
NI1240   NI        0.113004    0.594234    0.323607     0.004307
NI1241   NI        0.156942    0.558041    0.321340     0.004307
NI1242   NI        0.137818    0.597006    0.357411     0.004307
PD1243   PD        0.168446    0.565516    0.340758     0.005394
NI1244   NI        0.177754    0.593395    0.303637     0.004307
PD1245   PD        0.208910    0.564468    0.313384     0.005394
PD1246   PD        0.205079    0.597190    0.342803     0.005394
PD1247   PD        0.234506    0.560019    0.354163     0.005394
PD1248   PD        0.242495    0.602068    0.313720     0.005394
PD1249   PD        0.267315    0.560127    0.318956     0.005394
PD1250   PD        0.265696    0.594118    0.356585     0.005394
PD1251   PD        0.303113    0.564862    0.352500     0.005394
PD1252   PD        0.299612    0.598066    0.317836     0.005394
PD1253   PD        0.352034    0.573465    0.304342     0.005394
PD1254   PD        0.372264    0.612517    0.345517     0.005394
PD1255   PD        0.379083    0.562036    0.348943     0.005394
PD1256   PD        0.378303    0.597625    0.316355     0.005394
PD1257   PD        0.441898    0.582706    0.317890     0.005394
NI1258   NI        0.415274    0.607225    0.347441     0.004307
PD1259   PD        0.453240    0.557330    0.358174     0.005394
PD1260   PD        0.442931    0.595233    0.302807     0.005394
PD1261   PD        0.501303    0.564349    0.327712     0.005394
PD1262   PD        0.498221    0.589364    0.350099     0.005394
PD1263   PD        0.530506    0.555974    0.365824     0.005394
PD1264   PD        0.527218    0.602132    0.312787     0.005394
PD1265   PD        0.544853    0.553363    0.320205     0.005394
PD1266   PD        0.551800    0.597004    0.362216     0.005394
PD1267   PD        0.588972    0.553083    0.335330     0.005394
NI1268   NI        0.571817    0.586943    0.307436     0.004307
PD1269   PD        0.624142    0.560839    0.320003     0.005394
NI1270   NI        0.635137    0.597802    0.351749     0.004307
NI1271   NI        0.670348    0.562526    0.338487     0.004307
PD1272   PD        0.657435    0.594737    0.323981     0.005394
PD1273   PD        0.691620    0.561131    0.322329     0.005394
NI1274   NI        0.697962    0.590354    0.338690     0.004307
PD1275   PD        0.725269    0.560752    0.357369     0.005394
NI1276   NI        0.727861    0.593362    0.320586     0.004307
NI1277   NI        0.768646    0.549719    0.321000     0.004307
NI1278   NI        0.767314    0.585769    0.349473     0.004307
NI1279   NI        0.794548    0.557343    0.357798     0.004307
NI1280   NI        0.111028    0.624926    0.356716     0.004307
NI1281   NI        0.108146    0.665536    0.321936     0.004307
NI1282   NI        0.147348    0.625492    0.320906     0.004307
NI1283   NI        0.142516    0.658692    0.356440     0.004307
NI1284   NI        0.177688    0.631676    0.354077     0.004307
NI1285   NI        0.175719    0.664994    0.320282     0.004307
NI1286   NI        0.209241    0.637571    0.316149     0.004307
NI1287   NI        0.211501    0.665609    0.354517     0.004307
PD1288   PD        0.265757    0.611348    0.351308     0.005394
NI1289   NI        0.239222    0.683701    0.321620     0.004307
PD1290   PD        0.277502    0.636434    0.319305     0.005394
NI1291   NI        0.276628    0.660076    0.359852     0.004307
NI1292   NI        0.309458    0.640614    0.342667     0.004307
NI1293   NI        0.294158    0.681482    0.326020     0.004307
PD1294   PD        0.339768    0.619808    0.311610     0.005394
PD1295   PD        0.352211    0.666379    0.354328     0.005394
PD1296   PD        0.373207    0.627118    0.340102     0.005394
NI1297   NI        0.383939    0.668459    0.318541     0.004307
PD1298   PD        0.409180    0.630851    0.306670     0.005394
PD1299   PD        0.422199    0.672060    0.347343     0.005394
PD1300   PD        0.457418    0.618282    0.331523     0.005394
NI1301   NI        0.454878    0.674476    0.320930     0.004307
NI1302   NI        0.497119    0.631658    0.331519     0.004307
PD1303   PD        0.488849    0.671759    0.356113     0.005394
PD1304   PD        0.508443    0.624722    0.347704     0.005394
NI1305   NI        0.546876    0.662467    0.293648     0.004307
NI1306   NI        0.573674    0.634971    0.325940     0.004307
NI1307   NI        0.545534    0.668433    0.374756     0.004307
NI1308   NI        0.606183    0.634660    0.343434     0.004307
NI1309   NI        0.591100    0.674593    0.320172     0.004307
NI1310   NI        0.640934    0.636720    0.311565     0.004307
NI1311   NI        0.632527    0.671782    0.344272     0.004307
NI1312   NI        0.653744    0.628053    0.357493     0.004307
NI1313   NI        0.675703    0.666500    0.323821     0.004307
NI1314   NI        0.692920    0.662425    0.286939     0.004307
NI1315   NI        0.689328    0.662914    0.355050     0.004307
NI1316   NI        0.726010    0.627508    0.355014     0.004307
NI1317   NI        0.720949    0.667616    0.327287     0.004307
NI1318   NI        0.126564    0.698265    0.290018     0.004307
NI1319   NI        0.177834    0.695289    0.354174     0.004307
NI1320   NI        0.163525    0.721976    0.311746     0.004307
NI1321   NI        0.197016    0.702616    0.332141     0.004307
NI1322   NI        0.201123    0.735563    0.343730     0.004307
NI1323   NI        0.246395    0.699961    0.355321     0.004307
NI1324   NI        0.246440    0.733858    0.325881     0.004307
PD1325   PD        0.281511    0.700466    0.323323     0.005394
NI1326   NI        0.281637    0.734177    0.358116     0.004307
PD1327   PD        0.316154    0.698977    0.355305     0.005394
PD1328   PD        0.314409    0.735802    0.322225     0.005394
PD1329   PD        0.349337    0.702404    0.319833     0.005394
PD1330   PD        0.349621    0.733963    0.355130     0.005394
PD1331   PD        0.383696    0.700397    0.351029     0.005394
PD1332   PD        0.383237    0.735550    0.319161     0.005394
NI1333   NI        0.416919    0.704274    0.314746     0.004307
NI1334   NI        0.435239    0.743289    0.345844     0.004307
NI1335   NI        0.457426    0.704027    0.340488     0.004307
NI1336   NI        0.452358    0.734802    0.320734     0.004307
PD1337   PD        0.486836    0.703284    0.323671     0.005394
PD1338   PD        0.486414    0.739187    0.355118     0.005394
PD1339   PD        0.522251    0.706290    0.356359     0.005394
PD1340   PD        0.521786    0.738310    0.319125     0.005394
PD1341   PD        0.557111    0.707781    0.321844     0.005394
NI1342   NI        0.555944    0.743940    0.353869     0.004307
NI1343   NI        0.582854    0.676262    0.347600     0.004307
NI1344   NI        0.608299    0.734720    0.306191     0.004307
NI1345   NI        0.631530    0.692602    0.301395     0.004307
NI1346   NI        0.623519    0.745381    0.351280     0.004307
NI1347   NI        0.657336    0.716351    0.334001     0.004307
NI1348   NI        0.648013    0.731004    0.325623     0.004307
NI1349   NI        0.699978    0.704319    0.305738     0.004307
NI1350   NI        0.256280    0.758827    0.352468     0.004307
NI1351   NI        0.281771    0.766288    0.323500     0.004307
NI1352   NI        0.281284    0.801740    0.358818     0.004307
PD1353   PD        0.315095    0.767454    0.357934     0.005394
NI1354   NI        0.314077    0.802968    0.323235     0.004307
NI1355   NI        0.347637    0.768958    0.321309     0.004307
NI1356   NI        0.387436    0.821608    0.377175     0.004307
PD1357   PD        0.384118    0.769755    0.354685     0.005394
NI1358   NI        0.382906    0.803307    0.323038     0.004307
NI1359   NI        0.425055    0.779963    0.326108     0.004307
NI1360   NI        0.451679    0.813234    0.351038     0.004307
NI1361   NI        0.451641    0.768146    0.353787     0.004307
NI1362   NI        0.450594    0.805157    0.319135     0.004307
NI1363   NI        0.484904    0.772070    0.320292     0.004307
NI1364   NI        0.484294    0.805731    0.353893     0.004307
NI1365   NI        0.532065    0.782829    0.334238     0.004307
NI1366   NI        0.519257    0.805618    0.319145     0.004307
NI1367   NI        0.553510    0.770439    0.318558     0.004307
NI1368   NI        0.551134    0.810076    0.352853     0.004307
NI1369   NI        0.587171    0.779646    0.353446     0.004307
NI1370   NI        0.247526    0.046802    0.387241     0.004307
NI1371   NI        0.282482    0.045695    0.422977     0.004307
NI1372   NI        0.283345    0.012371    0.387770     0.004307
PD1373   PD        0.350188    0.044751    0.424867     0.005394
NI1374   NI        0.385554    0.011460    0.425180     0.004307
NI1375   NI        0.375898    0.031383    0.371811     0.004307
NI1376   NI        0.420200    0.011477    0.389909     0.004307
PD1377   PD        0.419179    0.042930    0.427563     0.005394
NI1378   NI        0.479907    0.035469    0.407241     0.004307
NI1379   NI        0.449315    0.021547    0.371937     0.004307
PD1380   PD        0.489218    0.045313    0.426622     0.005394
NI1381   NI        0.520439    0.045537    0.393436     0.004307
NI1382   NI        0.554054    0.043684    0.428009     0.004307
NI1383   NI        0.608491    0.011969    0.399631     0.004307
NI1384   NI        0.144592    0.113557    0.425693     0.004307
NI1385   NI        0.178311    0.079388    0.426133     0.004307
NI1386   NI        0.179289    0.113043    0.388373     0.004307
NI1387   NI        0.211836    0.079300    0.390302     0.004307
PD1388   PD        0.212579    0.111943    0.424375     0.005394
PD1389   PD        0.246279    0.080217    0.422644     0.005394
NI1390   NI        0.257707    0.090077    0.417530     0.004307
PD1391   PD        0.281667    0.078974    0.390196     0.005394
PD1392   PD        0.281199    0.112898    0.423493     0.005394
PD1393   PD        0.316709    0.080616    0.424569     0.005394
PD1394   PD        0.315139    0.110933    0.392704     0.005394
NI1395   NI        0.336565    0.106060    0.401272     0.004307
PD1396   PD        0.349066    0.114659    0.425634     0.005394
NI1397   NI        0.403002    0.073445    0.440035     0.004307
PD1398   PD        0.384697    0.113072    0.390549     0.005394
PD1399   PD        0.419520    0.077769    0.393011     0.005394
PD1400   PD        0.416532    0.113923    0.425963     0.005394
NI1401   NI        0.449293    0.052021    0.408478     0.004307
PD1402   PD        0.451227    0.113484    0.395494     0.005394
PD1403   PD        0.486517    0.080616    0.393310     0.005394
NI1404   NI        0.479602    0.103482    0.423766     0.004307
PD1405   PD        0.521347    0.078899    0.428100     0.005394
NI1406   NI        0.514611    0.111571    0.391521     0.004307
PD1407   PD        0.557013    0.078634    0.393607     0.005394
NI1408   NI        0.548427    0.126187    0.421794     0.004307
NI1409   NI        0.594251    0.056059    0.415133     0.004307
NI1410   NI        0.584151    0.107259    0.381519     0.004307
NI1411   NI        0.625298    0.044563    0.428245     0.004307
PD1412   PD        0.624544    0.114682    0.427015     0.005394
NI1413   NI        0.657979    0.080771    0.427875     0.004307
NI1414   NI        0.660575    0.113902    0.392312     0.004307
NI1415   NI        0.715524    0.101497    0.415789     0.004307
NI1416   NI        0.074897    0.181901    0.425261     0.004307
NI1417   NI        0.110971    0.146292    0.423820     0.004307
PD1418   PD        0.109223    0.180976    0.391837     0.005394
NI1419   NI        0.138425    0.177072    0.358108     0.004307
PD1420   PD        0.143193    0.181517    0.426216     0.005394
PD1421   PD        0.178642    0.146851    0.426799     0.005394
PD1422   PD        0.179044    0.180719    0.391229     0.005394
NI1423   NI        0.211934    0.122531    0.378812     0.004307
PD1424   PD        0.212420    0.182568    0.424857     0.005394
NI1425   NI        0.250287    0.137459    0.402506     0.004307
PD1426   PD        0.246736    0.184736    0.391681     0.005394
NI1427   NI        0.269772    0.155340    0.363505     0.004307
NI1428   NI        0.277685    0.175692    0.427144     0.004307
PD1429   PD        0.318684    0.149803    0.424931     0.005394
PD1430   PD        0.319856    0.188048    0.393620     0.005394
PD1431   PD        0.330529    0.148090    0.380430     0.005394
PD1432   PD        0.349828    0.181621    0.426041     0.005394
PD1433   PD        0.383884    0.150924    0.426973     0.005394
PD1434   PD        0.383568    0.181512    0.391860     0.005394
PD1435   PD        0.410470    0.159373    0.388245     0.005394
PD1436   PD        0.417926    0.180766    0.426961     0.005394
PD1437   PD        0.452861    0.146891    0.428382     0.005394
PD1438   PD        0.452380    0.179336    0.392941     0.005394
PD1439   PD        0.487356    0.145316    0.392628     0.005394
PD1440   PD        0.487809    0.180424    0.427096     0.005394
PD1441   PD        0.523364    0.147430    0.427317     0.005394
PD1442   PD        0.523072    0.180856    0.392708     0.005394
PD1443   PD        0.557341    0.145703    0.394434     0.005394
PD1444   PD        0.556713    0.181237    0.427689     0.005394
NI1445   NI        0.593442    0.137525    0.405938     0.004307
PD1446   PD        0.589438    0.184428    0.390361     0.005394
PD1447   PD        0.621469    0.151761    0.394770     0.005394
PD1448   PD        0.624919    0.183267    0.427144     0.005394
NI1449   NI        0.676056    0.152428    0.413950     0.004307
PD1450   PD        0.659008    0.183097    0.391744     0.005394
NI1451   NI        0.705488    0.132149    0.380312     0.004307
NI1452   NI        0.709568    0.185060    0.420352     0.004307
NI1453   NI        0.740224    0.127764    0.413575     0.004307
NI1454   NI        0.742623    0.162105    0.377654     0.004307
NI1455   NI        0.762589    0.182801    0.423391     0.004307
NI1456   NI        0.025598    0.267961    0.382084     0.004307
NI1457   NI        0.066181    0.229635    0.382868     0.004307
NI1458   NI        0.077142    0.250177    0.425898     0.004307
PD1459   PD        0.108929    0.214697    0.425612     0.005394
NI1460   NI        0.108864    0.238224    0.367943     0.004307
PD1461   PD        0.141261    0.213225    0.394138     0.005394
NI1462   NI        0.129892    0.259917    0.404659     0.004307
PD1463   PD        0.178135    0.214459    0.426475     0.005394
PD1464   PD        0.175231    0.250149    0.393697     0.005394
NI1465   NI        0.194187    0.223876    0.404413     0.004307
PD1466   PD        0.210512    0.249530    0.426459     0.005394
PD1467   PD        0.247116    0.216707    0.426436     0.005394
NI1468   NI        0.237114    0.238115    0.395740     0.004307
PD1469   PD        0.282398    0.217203    0.392720     0.005394
PD1470   PD        0.281010    0.252131    0.429052     0.005394
PD1471   PD        0.316352    0.215602    0.427253     0.005394
PD1472   PD        0.313220    0.252378    0.390630     0.005394
PD1473   PD        0.353826    0.218695    0.396864     0.005394
PD1474   PD        0.348831    0.249351    0.423508     0.005394
PD1475   PD        0.374896    0.196307    0.436831     0.005394
PD1476   PD        0.383757    0.251603    0.391909     0.005394
PD1477   PD        0.418528    0.216115    0.393039     0.005394
PD1478   PD        0.419350    0.248777    0.425289     0.005394
PD1479   PD        0.454274    0.214370    0.427991     0.005394
PD1480   PD        0.444399    0.255418    0.372235     0.005394
PD1481   PD        0.498565    0.226657    0.416498     0.005394
PD1482   PD        0.487846    0.248854    0.425686     0.005394
PD1483   PD        0.521466    0.214006    0.427826     0.005394
PD1484   PD        0.522253    0.248819    0.393431     0.005394
PD1485   PD        0.556070    0.212648    0.389198     0.005394
PD1486   PD        0.562461    0.229570    0.409926     0.005394
PD1487   PD        0.591894    0.216708    0.427767     0.005394
PD1488   PD        0.589376    0.249579    0.393346     0.005394
PD1489   PD        0.625270    0.215937    0.392602     0.005394
PD1490   PD        0.626811    0.250676    0.425729     0.005394
PD1491   PD        0.658256    0.217663    0.428328     0.005394
PD1492   PD        0.659577    0.250200    0.391956     0.005394
NI1493   NI        0.725924    0.215119    0.353361     0.004307
NI1494   NI        0.682063    0.261796    0.420666     0.004307
NI1495   NI        0.717849    0.192332    0.413572     0.004307
NI1496   NI        0.734945    0.225735    0.393683     0.004307
NI1497   NI        0.762805    0.217642    0.390464     0.004307
PD1498   PD        0.763218    0.250287    0.426207     0.005394
NI1499   NI        0.797391    0.252057    0.394590     0.004307
NI1500   NI        0.020260    0.308024    0.430541     0.004307
NI1501   NI        0.029813    0.293796    0.399886     0.004307
PD1502   PD        0.077084    0.284952    0.390785     0.005394
NI1503   NI        0.058079    0.331753    0.412981     0.004307
PD1504   PD        0.109104    0.285409    0.426293     0.005394
PD1505   PD        0.109804    0.318801    0.390812     0.005394
NI1506   NI        0.132634    0.280376    0.376409     0.004307
PD1507   PD        0.144158    0.317630    0.428024     0.005394
PD1508   PD        0.175248    0.283198    0.428177     0.005394
PD1509   PD        0.184930    0.329576    0.378896     0.005394
PD1510   PD        0.213412    0.284753    0.393282     0.005394
PD1511   PD        0.218467    0.331438    0.410981     0.005394
PD1512   PD        0.247223    0.283197    0.413178     0.005394
PD1513   PD        0.247896    0.319592    0.392893     0.005394
PD1514   PD        0.271404    0.262721    0.381584     0.005394
PD1515   PD        0.272628    0.318173    0.425908     0.005394
PD1516   PD        0.319107    0.297574    0.415817     0.005394
PD1517   PD        0.302245    0.317029    0.374912     0.005394
PD1518   PD        0.349500    0.281521    0.390662     0.005394
PD1519   PD        0.343908    0.320771    0.411263     0.005394
PD1520   PD        0.384053    0.282309    0.426338     0.005394
PD1521   PD        0.383294    0.316682    0.389723     0.005394
PD1522   PD        0.419876    0.283636    0.392038     0.005394
PD1523   PD        0.419805    0.318154    0.425214     0.005394
PD1524   PD        0.453456    0.283646    0.425825     0.005394
PD1525   PD        0.452679    0.318115    0.393677     0.005394
PD1526   PD        0.487824    0.281837    0.392150     0.005394
PD1527   PD        0.486486    0.317950    0.425939     0.005394
PD1528   PD        0.521563    0.282131    0.426589     0.005394
PD1529   PD        0.520786    0.314577    0.392475     0.005394
PD1530   PD        0.557347    0.282538    0.392506     0.005394
PD1531   PD        0.568476    0.311127    0.422790     0.005394
PD1532   PD        0.607411    0.289563    0.443883     0.005394
PD1533   PD        0.590448    0.317618    0.392587     0.005394
PD1534   PD        0.624612    0.283728    0.392083     0.005394
PD1535   PD        0.626038    0.317820    0.427265     0.005394
PD1536   PD        0.659761    0.285284    0.426833     0.005394
PD1537   PD        0.659892    0.319822    0.392770     0.005394
PD1538   PD        0.693136    0.283642    0.391406     0.005394
PD1539   PD        0.696123    0.319662    0.425523     0.005394
PD1540   PD        0.728535    0.284698    0.424530     0.005394
PD1541   PD        0.728940    0.319013    0.389272     0.005394
NI1542   NI        0.769276    0.297971    0.411404     0.004307
NI1543   NI        0.777083    0.309292    0.406441     0.004307
NI1544   NI        0.798033    0.284559    0.425035     0.004307
NI1545   NI        0.795856    0.320397    0.389059     0.004307
NI1546   NI        0.008756    0.387693    0.423448     0.004307
NI1547   NI        0.010855    0.324442    0.424472     0.004307
NI1548   NI        0.040123    0.405537    0.357532     0.004307
PD1549   PD        0.078321    0.355051    0.390576     0.005394
NI1550   NI        0.075240    0.387674    0.425472     0.004307
NI1551   NI        0.086094    0.328812    0.420914     0.004307
PD1552   PD        0.111084    0.385940    0.392405     0.005394
PD1553   PD        0.144433    0.352416    0.393418     0.005394
PD1554   PD        0.143603    0.387342    0.426444     0.005394
PD1555   PD        0.175339    0.351393    0.425987     0.005394
PD1556   PD        0.146559    0.421930    0.391720     0.005394
PD1557   PD        0.212201    0.349231    0.396099     0.005394
PD1558   PD        0.209376    0.384472    0.425850     0.005394
PD1559   PD        0.246366    0.352940    0.427934     0.005394
PD1560   PD        0.238175    0.389961    0.375709     0.005394
PD1561   PD        0.290359    0.363905    0.376138     0.005394
PD1562   PD        0.283950    0.385870    0.418717     0.005394
PD1563   PD        0.315619    0.353324    0.427267     0.005394
PD1564   PD        0.317379    0.388135    0.388727     0.005394
PD1565   PD        0.349807    0.350522    0.391344     0.005394
PD1566   PD        0.341382    0.403312    0.429643     0.005394
PD1567   PD        0.386012    0.350126    0.424879     0.005394
PD1568   PD        0.365451    0.379340    0.394854     0.005394
PD1569   PD        0.418761    0.353287    0.392299     0.005394
PD1570   PD        0.418893    0.385306    0.426548     0.005394
PD1571   PD        0.453032    0.353076    0.426131     0.005394
PD1572   PD        0.452879    0.385506    0.392051     0.005394
PD1573   PD        0.487743    0.351229    0.391973     0.005394
PD1574   PD        0.488484    0.385561    0.426992     0.005394
PD1575   PD        0.521115    0.351585    0.425672     0.005394
PD1576   PD        0.521634    0.386257    0.390994     0.005394
PD1577   PD        0.556665    0.351400    0.389457     0.005394
PD1578   PD        0.556600    0.384433    0.422706     0.005394
PD1579   PD        0.590004    0.349884    0.425364     0.005394
PD1580   PD        0.591435    0.385380    0.392681     0.005394
PD1581   PD        0.626180    0.352749    0.393812     0.005394
PD1582   PD        0.624773    0.386789    0.425005     0.005394
PD1583   PD        0.660341    0.353287    0.429289     0.005394
PD1584   PD        0.668392    0.400194    0.368654     0.005394
PD1585   PD        0.694743    0.353460    0.389791     0.005394
PD1586   PD        0.693494    0.388297    0.425219     0.005394
PD1587   PD        0.727871    0.355319    0.424750     0.005394
PD1588   PD        0.729447    0.388266    0.390978     0.005394
PD1589   PD        0.763935    0.354166    0.390653     0.005394
PD1590   PD        0.761406    0.389238    0.423043     0.005394
NI1591   NI        0.796898    0.356256    0.424675     0.004307
PD1592   PD        0.795366    0.389247    0.387846     0.005394
NI1593   NI        0.831251    0.387505    0.432975     0.004307
NI1594   NI        0.008258    0.421470    0.389759     0.004307
NI1595   NI        0.014207    0.456590    0.410525     0.004307
NI1596   NI        0.036338    0.417799    0.426511     0.004307
NI1597   NI        0.043450    0.457227    0.387939     0.004307
NI1598   NI        0.057853    0.429505    0.415916     0.004307
PD1599   PD        0.077603    0.456743    0.422391     0.005394
PD1600   PD        0.109281    0.420757    0.426276     0.005394
NI1601   NI        0.100253    0.464632    0.419654     0.004307
PD1602   PD        0.137089    0.416835    0.392279     0.005394
PD1603   PD        0.145819    0.455585    0.422956     0.005394
PD1604   PD        0.179993    0.420388    0.428079     0.005394
PD1605   PD        0.179688    0.454562    0.393896     0.005394
PD1606   PD        0.195634    0.408775    0.387434     0.005394
PD1607   PD        0.211941    0.456758    0.430726     0.005394
PD1608   PD        0.236217    0.421195    0.411311     0.005394
PD1609   PD        0.256429    0.464620    0.366080     0.005394
PD1610   PD        0.279352    0.406873    0.394542     0.005394
PD1611   PD        0.275961    0.467287    0.429178     0.005394
PD1612   PD        0.312589    0.418890    0.401887     0.005394
PD1613   PD        0.315889    0.453523    0.389692     0.005394
PD1614   PD        0.354406    0.425201    0.383573     0.005394
PD1615   PD        0.351313    0.453926    0.422850     0.005394
PD1616   PD        0.385674    0.420036    0.423308     0.005394
PD1617   PD        0.387051    0.455934    0.392436     0.005394
PD1618   PD        0.420613    0.419890    0.392086     0.005394
PD1619   PD        0.395175    0.458299    0.410855     0.005394
PD1620   PD        0.462811    0.439476    0.404808     0.005394
PD1621   PD        0.458765    0.453730    0.382886     0.005394
PD1622   PD        0.481634    0.398261    0.391095     0.005394
PD1623   PD        0.501471    0.463454    0.419295     0.005394
PD1624   PD        0.521639    0.420811    0.423778     0.005394
PD1625   PD        0.519920    0.455327    0.392656     0.005394
PD1626   PD        0.562199    0.416968    0.390148     0.005394
PD1627   PD        0.566452    0.456877    0.414356     0.005394
PD1628   PD        0.591974    0.418009    0.427751     0.005394
PD1629   PD        0.601923    0.455682    0.379622     0.005394
PD1630   PD        0.627436    0.420480    0.390891     0.005394
PD1631   PD        0.627743    0.455688    0.423904     0.005394
PD1632   PD        0.661909    0.421605    0.425911     0.005394
PD1633   PD        0.645867    0.467870    0.395001     0.005394
PD1634   PD        0.693096    0.421747    0.391656     0.005394
PD1635   PD        0.694857    0.455751    0.424519     0.005394
PD1636   PD        0.727334    0.424597    0.423650     0.005394
PD1637   PD        0.727348    0.455609    0.389224     0.005394
PD1638   PD        0.762818    0.423903    0.389648     0.005394
NI1639   NI        0.777549    0.464524    0.413475     0.004307
PD1640   PD        0.797360    0.422292    0.424454     0.005394
NI1641   NI        0.795545    0.455796    0.390711     0.004307
NI1642   NI        0.810659    0.432919    0.381423     0.004307
NI1643   NI        0.828950    0.458307    0.422524     0.004307
NI1644   NI        0.044382    0.490155    0.422503     0.004307
NI1645   NI        0.013220    0.515990    0.381964     0.004307
PD1646   PD        0.079103    0.489330    0.386786     0.005394
NI1647   NI        0.056353    0.537313    0.432129     0.004307
PD1648   PD        0.112504    0.489373    0.421774     0.005394
PD1649   PD        0.114224    0.524021    0.388261     0.005394
PD1650   PD        0.153867    0.502117    0.395192     0.005394
NI1651   NI        0.137532    0.533823    0.427978     0.004307
PD1652   PD        0.177540    0.496216    0.414015     0.005394
PD1653   PD        0.157643    0.547644    0.384398     0.005394
PD1654   PD        0.183270    0.485457    0.376075     0.005394
PD1655   PD        0.214427    0.521891    0.425770     0.005394
PD1656   PD        0.252441    0.487196    0.424617     0.005394
PD1657   PD        0.249249    0.522478    0.392343     0.005394
PD1658   PD        0.282304    0.490284    0.391159     0.005394
PD1659   PD        0.265273    0.532212    0.413398     0.005394
PD1660   PD        0.321286    0.494615    0.417601     0.005394
PD1661   PD        0.313439    0.525520    0.381015     0.005394
PD1662   PD        0.355540    0.507255    0.386991     0.005394
PD1663   PD        0.342263    0.536695    0.422632     0.005394
PD1664   PD        0.375171    0.475907    0.414378     0.005394
PD1665   PD        0.398025    0.513165    0.386524     0.005394
PD1666   PD        0.409496    0.499331    0.392867     0.005394
PD1667   PD        0.423296    0.537754    0.417255     0.005394
PD1668   PD        0.451519    0.487106    0.426925     0.005394
PD1669   PD        0.466529    0.537656    0.399514     0.005394
PD1670   PD        0.500051    0.491393    0.387705     0.005394
PD1671   PD        0.494210    0.515155    0.431424     0.005394
PD1672   PD        0.536342    0.478242    0.416345     0.005394
PD1673   PD        0.529609    0.522074    0.399121     0.005394
PD1674   PD        0.569741    0.499386    0.389863     0.005394
PD1675   PD        0.572271    0.530372    0.407251     0.005394
PD1676   PD        0.603469    0.497222    0.424065     0.005394
PD1677   PD        0.592063    0.540381    0.389012     0.005394
PD1678   PD        0.635127    0.489712    0.388884     0.005394
PD1679   PD        0.629857    0.508492    0.431864     0.005394
PD1680   PD        0.660900    0.491880    0.423725     0.005394
PD1681   PD        0.655458    0.526630    0.390746     0.005394
NI1682   NI        0.708036    0.481562    0.398950     0.004307
NI1683   NI        0.715039    0.533716    0.411713     0.004307
NI1684   NI        0.737710    0.490027    0.419555     0.004307
PD1685   PD        0.724825    0.525675    0.389137     0.005394
NI1686   NI        0.773454    0.527256    0.381763     0.004307
NI1687   NI        0.764547    0.526018    0.428124     0.004307
NI1688   NI        0.795768    0.491432    0.425308     0.004307
NI1689   NI        0.794050    0.525814    0.388651     0.004307
NI1690   NI        0.044755    0.557184    0.423712     0.004307
NI1691   NI        0.032888    0.593229    0.373913     0.004307
NI1692   NI        0.075890    0.557404    0.393045     0.004307
NI1693   NI        0.062243    0.595609    0.444983     0.004307
NI1694   NI        0.085332    0.568245    0.413793     0.004307
NI1695   NI        0.103488    0.603474    0.389471     0.004307
PD1696   PD        0.149330    0.558393    0.389396     0.005394
NI1697   NI        0.137225    0.604917    0.423778     0.004307
PD1698   PD        0.170338    0.568149    0.424882     0.005394
PD1699   PD        0.171214    0.601465    0.390167     0.005394
PD1700   PD        0.198774    0.570275    0.383239     0.005394
PD1701   PD        0.213025    0.594726    0.421904     0.005394
PD1702   PD        0.252441    0.572089    0.436896     0.005394
PD1703   PD        0.247545    0.614898    0.395960     0.005394
PD1704   PD        0.279571    0.558545    0.393682     0.005394
PD1705   PD        0.276931    0.612897    0.433860     0.005394
PD1706   PD        0.326671    0.561976    0.405805     0.005394
PD1707   PD        0.305088    0.592982    0.374740     0.005394
PD1708   PD        0.360122    0.552380    0.373327     0.005394
PD1709   PD        0.343419    0.598878    0.434395     0.005394
PD1710   PD        0.373692    0.568920    0.415991     0.005394
PD1711   PD        0.366864    0.590870    0.385307     0.005394
PD1712   PD        0.416017    0.557238    0.392766     0.005394
PD1713   PD        0.420264    0.584009    0.426935     0.005394
PD1714   PD        0.464424    0.564544    0.438872     0.005394
PD1715   PD        0.460643    0.627026    0.394026     0.005394
PD1716   PD        0.467561    0.560549    0.390649     0.005394
PD1717   PD        0.490230    0.604615    0.436306     0.005394
PD1718   PD        0.518786    0.557158    0.426374     0.005394
PD1719   PD        0.516990    0.605412    0.395463     0.005394
PD1720   PD        0.559388    0.560303    0.416769     0.005394
PD1721   PD        0.566750    0.625235    0.411255     0.005394
PD1722   PD        0.608723    0.558632    0.396475     0.005394
PD1723   PD        0.595935    0.605284    0.380420     0.005394
NI1724   NI        0.628051    0.560750    0.376718     0.004307
PD1725   PD        0.624185    0.592444    0.427500     0.005394
PD1726   PD        0.655776    0.561397    0.423996     0.005394
PD1727   PD        0.655399    0.594777    0.391514     0.005394
NI1728   NI        0.687411    0.577246    0.379350     0.004307
PD1729   PD        0.692529    0.593365    0.424337     0.005394
PD1730   PD        0.725699    0.558515    0.423509     0.005394
PD1731   PD        0.724453    0.594521    0.390935     0.005394
PD1732   PD        0.760068    0.559516    0.389503     0.005394
NI1733   NI        0.787712    0.612494    0.420646     0.004307
NI1734   NI        0.806748    0.547181    0.446937     0.004307
NI1735   NI        0.793247    0.593034    0.387915     0.004307
NI1736   NI        0.075626    0.626674    0.391686     0.004307
NI1737   NI        0.045117    0.690798    0.435397     0.004307
NI1738   NI        0.104219    0.637193    0.421731     0.004307
NI1739   NI        0.109498    0.659994    0.389371     0.004307
NI1740   NI        0.146829    0.626348    0.389086     0.004307
NI1741   NI        0.140136    0.666711    0.425686     0.004307
NI1742   NI        0.172312    0.633732    0.422968     0.004307
NI1743   NI        0.179495    0.684415    0.399440     0.004307
NI1744   NI        0.210003    0.644149    0.393411     0.004307
NI1745   NI        0.213656    0.662273    0.423195     0.004307
PD1746   PD        0.241709    0.626777    0.428223     0.005394
NI1747   NI        0.258610    0.685936    0.384798     0.004307
NI1748   NI        0.257783    0.635959    0.386301     0.004307
PD1749   PD        0.281846    0.660168    0.419811     0.005394
PD1750   PD        0.301998    0.633044    0.421824     0.005394
PD1751   PD        0.321154    0.671976    0.373380     0.005394
PD1752   PD        0.339362    0.629799    0.376047     0.005394
NI1753   NI        0.348883    0.684546    0.409506     0.004307
PD1754   PD        0.375569    0.646100    0.408152     0.005394
PD1755   PD        0.362705    0.671317    0.396628     0.005394
PD1756   PD        0.419735    0.644457    0.387047     0.005394
PD1757   PD        0.421029    0.672217    0.426922     0.005394
PD1758   PD        0.457846    0.636412    0.425690     0.005394
PD1759   PD        0.466349    0.652341    0.394368     0.005394
PD1760   PD        0.487790    0.638547    0.389337     0.005394
PD1761   PD        0.490719    0.672642    0.429719     0.005394
PD1762   PD        0.523621    0.640447    0.429171     0.005394
PD1763   PD        0.527653    0.666805    0.364638     0.005394
PD1764   PD        0.555932    0.628673    0.400124     0.005394
PD1765   PD        0.556742    0.669331    0.425912     0.005394
PD1766   PD        0.610845    0.641881    0.419477     0.005394
NI1767   NI        0.589073    0.678385    0.394669     0.004307
NI1768   NI        0.638443    0.637563    0.381053     0.004307
PD1769   PD        0.625275    0.662911    0.422446     0.005394
PD1770   PD        0.658011    0.628142    0.425113     0.005394
NI1771   NI        0.657153    0.678615    0.384145     0.004307
NI1772   NI        0.693552    0.651516    0.405696     0.004307
NI1773   NI        0.691571    0.661147    0.421117     0.004307
NI1774   NI        0.725614    0.628595    0.423414     0.004307
NI1775   NI        0.726308    0.662926    0.390607     0.004307
NI1776   NI        0.759824    0.626091    0.389182     0.004307
NI1777   NI        0.778034    0.659548    0.417727     0.004307
NI1778   NI        0.083016    0.735819    0.412323     0.004307
NI1779   NI        0.142529    0.692449    0.386452     0.004307
NI1780   NI        0.153163    0.738375    0.432208     0.004307
NI1781   NI        0.180577    0.694653    0.422984     0.004307
NI1782   NI        0.178814    0.732435    0.392740     0.004307
NI1783   NI        0.212963    0.698362    0.391978     0.004307
NI1784   NI        0.189331    0.740717    0.434290     0.004307
NI1785   NI        0.248863    0.695430    0.423559     0.004307
PD1786   PD        0.248216    0.731147    0.393165     0.005394
NI1787   NI        0.270783    0.718590    0.392184     0.004307
NI1788   NI        0.256973    0.742369    0.426109     0.004307
PD1789   PD        0.317350    0.694613    0.422357     0.005394
NI1790   NI        0.317165    0.731807    0.389563     0.004307
PD1791   PD        0.352997    0.700275    0.388053     0.005394
NI1792   NI        0.382619    0.750166    0.415683     0.004307
PD1793   PD        0.386439    0.703617    0.425979     0.005394
PD1794   PD        0.384416    0.735356    0.390706     0.005394
NI1795   NI        0.420841    0.710162    0.378285     0.004307
PD1796   PD        0.419372    0.737078    0.425423     0.005394
PD1797   PD        0.455372    0.706126    0.425981     0.005394
PD1798   PD        0.453057    0.735276    0.391393     0.005394
PD1799   PD        0.489417    0.704670    0.390792     0.005394
NI1800   NI        0.508299    0.754520    0.423313     0.004307
NI1801   NI        0.500829    0.709660    0.412756     0.004307
NI1802   NI        0.507031    0.746223    0.377974     0.004307
NI1803   NI        0.561933    0.696408    0.380569     0.004307
NI1804   NI        0.556479    0.747187    0.424850     0.004307
NI1805   NI        0.591162    0.714009    0.424156     0.004307
NI1806   NI        0.590653    0.746110    0.388362     0.004307
NI1807   NI        0.623621    0.712850    0.386342     0.004307
NI1808   NI        0.629317    0.747076    0.445608     0.004307
NI1809   NI        0.659471    0.711129    0.418690     0.004307
NI1810   NI        0.658528    0.746847    0.386014     0.004307
NI1811   NI        0.693853    0.697570    0.389775     0.004307
NI1812   NI        0.695340    0.730897    0.423969     0.004307
NI1813   NI        0.728849    0.695630    0.423071     0.004307
NI1814   NI        0.174266    0.764784    0.419333     0.004307
NI1815   NI        0.230219    0.765961    0.365866     0.004307
NI1816   NI        0.241974    0.760736    0.413460     0.004307
NI1817   NI        0.244420    0.792494    0.382968     0.004307
NI1818   NI        0.281835    0.764718    0.391977     0.004307
NI1819   NI        0.266466    0.799962    0.421010     0.004307
NI1820   NI        0.311142    0.785009    0.427018     0.004307
NI1821   NI        0.315547    0.800478    0.393078     0.004307
NI1822   NI        0.348333    0.802147    0.356851     0.004307
NI1823   NI        0.348980    0.803674    0.422961     0.004307
NI1824   NI        0.385778    0.770750    0.424697     0.004307
NI1825   NI        0.383827    0.802912    0.389665     0.004307
NI1826   NI        0.417887    0.769123    0.388174     0.004307
NI1827   NI        0.418035    0.805991    0.423050     0.004307
PD1828   PD        0.453139    0.770905    0.423585     0.005394
NI1829   NI        0.468118    0.805452    0.394435     0.004307
NI1830   NI        0.486052    0.772135    0.388421     0.004307
NI1831   NI        0.479267    0.812958    0.434057     0.004307
NI1832   NI        0.530509    0.784670    0.430207     0.004307
NI1833   NI        0.518216    0.808987    0.390692     0.004307
NI1834   NI        0.553992    0.776928    0.388541     0.004307
NI1835   NI        0.560638    0.794897    0.443389     0.004307
NI1836   NI        0.609200    0.764717    0.431508     0.004307
NI1837   NI        0.603507    0.826745    0.399818     0.004307
NI1838   NI        0.621459    0.778879    0.387762     0.004307
NI1839   NI        0.673398    0.754937    0.431439     0.004307
NI1840   NI        0.381839    0.838083    0.424300     0.004307
NI1841   NI        0.416790    0.837990    0.387721     0.004307
NI1842   NI        0.450874    0.840486    0.424956     0.004307
NI1843   NI        0.249042    0.045401    0.458480     0.004307
NI1844   NI        0.281551    0.024328    0.485470     0.004307
NI1845   NI        0.307423    0.027876    0.443761     0.004307
NI1846   NI        0.350559    0.010456    0.458432     0.004307
NI1847   NI        0.328549    0.023443    0.486931     0.004307
NI1848   NI        0.365539    0.000714    0.508974     0.004307
PD1849   PD        0.384332    0.044138    0.460497     0.005394
NI1850   NI        0.417290    0.010467    0.460315     0.004307
NI1851   NI        0.407615    0.029632    0.511000     0.004307
NI1852   NI        0.455106    0.010967    0.494864     0.004307
NI1853   NI        0.447695    0.020395    0.486787     0.004307
NI1854   NI        0.520546    0.009157    0.427931     0.004307
PD1855   PD        0.487379    0.045488    0.495369     0.005394
PD1856   PD        0.523851    0.045440    0.461611     0.005394
NI1857   NI        0.532683    0.032605    0.485882     0.004307
NI1858   NI        0.591143    0.045927    0.461032     0.004307
NI1859   NI        0.145522    0.111181    0.496411     0.004307
NI1860   NI        0.181421    0.079071    0.493362     0.004307
PD1861   PD        0.179363    0.111955    0.458901     0.005394
PD1862   PD        0.214889    0.078864    0.458669     0.005394
PD1863   PD        0.215723    0.113787    0.493028     0.005394
PD1864   PD        0.249176    0.078935    0.495239     0.005394
PD1865   PD        0.248048    0.112375    0.459471     0.005394
PD1866   PD        0.281225    0.079278    0.458146     0.005394
PD1867   PD        0.281171    0.114275    0.494098     0.005394
PD1868   PD        0.314699    0.078992    0.491832     0.005394
NI1869   NI        0.299116    0.105589    0.474972     0.004307
NI1870   NI        0.323781    0.059237    0.462186     0.004307
PD1871   PD        0.348747    0.111438    0.494818     0.005394
NI1872   NI        0.358376    0.063434    0.485158     0.004307
PD1873   PD        0.385952    0.113688    0.460367     0.005394
PD1874   PD        0.418844    0.081372    0.459605     0.005394
PD1875   PD        0.418343    0.111058    0.496182     0.005394
NI1876   NI        0.468239    0.059288    0.489762     0.004307
PD1877   PD        0.450756    0.111533    0.461387     0.005394
PD1878   PD        0.486672    0.080275    0.460627     0.005394
PD1879   PD        0.486363    0.112625    0.495191     0.005394
PD1880   PD        0.519371    0.081256    0.494530     0.005394
PD1881   PD        0.523625    0.112579    0.462389     0.005394
PD1882   PD        0.557506    0.078658    0.462392     0.005394
PD1883   PD        0.556065    0.112542    0.496129     0.005394
NI1884   NI        0.580118    0.056067    0.497962     0.004307
NI1885   NI        0.591717    0.095358    0.485745     0.004307
NI1886   NI        0.625561    0.080541    0.462812     0.004307
PD1887   PD        0.625663    0.114610    0.497167     0.005394
NI1888   NI        0.658943    0.079790    0.497442     0.004307
NI1889   NI        0.657861    0.116959    0.460655     0.004307
NI1890   NI        0.707383    0.104733    0.475485     0.004307
NI1891   NI        0.063930    0.155295    0.490311     0.004307
PD1892   PD        0.110570    0.145142    0.495163     0.005394
PD1893   PD        0.109072    0.180852    0.459493     0.005394
NI1894   NI        0.151732    0.131569    0.442912     0.004307
PD1895   PD        0.146121    0.179501    0.494940     0.005394
NI1896   NI        0.150684    0.114885    0.490094     0.004307
PD1897   PD        0.176710    0.181232    0.459415     0.005394
PD1898   PD        0.212605    0.146893    0.457514     0.005394
PD1899   PD        0.213452    0.180793    0.494224     0.005394
PD1900   PD        0.249006    0.147735    0.491922     0.005394
PD1901   PD        0.245315    0.180700    0.452014     0.005394
PD1902   PD        0.281692    0.145815    0.458840     0.005394
PD1903   PD        0.280773    0.181653    0.494959     0.005394
PD1904   PD        0.315199    0.147219    0.493625     0.005394
PD1905   PD        0.314663    0.180028    0.460004     0.005394
PD1906   PD        0.350590    0.147220    0.462157     0.005394
PD1907   PD        0.349067    0.181717    0.496524     0.005394
PD1908   PD        0.383839    0.145663    0.494851     0.005394
PD1909   PD        0.383250    0.181365    0.461257     0.005394
PD1910   PD        0.418508    0.147020    0.460464     0.005394
PD1911   PD        0.418245    0.183170    0.494416     0.005394
PD1912   PD        0.451518    0.147507    0.495469     0.005394
PD1913   PD        0.450441    0.180489    0.460199     0.005394
PD1914   PD        0.486169    0.147083    0.462890     0.005394
PD1915   PD        0.488101    0.180762    0.495267     0.005394
PD1916   PD        0.521173    0.145495    0.497201     0.005394
PD1917   PD        0.521762    0.180598    0.460475     0.005394
PD1918   PD        0.556435    0.146849    0.461962     0.005394
PD1919   PD        0.556111    0.180499    0.496448     0.005394
PD1920   PD        0.589681    0.121583    0.527579     0.005394
NI1921   NI        0.612343    0.171209    0.447956     0.004307
PD1922   PD        0.625531    0.146961    0.461781     0.005394
NI1923   NI        0.634017    0.182676    0.472844     0.004307
PD1924   PD        0.658283    0.146900    0.496725     0.005394
PD1925   PD        0.658384    0.182175    0.460595     0.005394
PD1926   PD        0.691997    0.149393    0.460634     0.005394
PD1927   PD        0.691867    0.181935    0.496167     0.005394
NI1928   NI        0.738118    0.134963    0.512397     0.004307
NI1929   NI        0.750607    0.185404    0.446248     0.004307
NI1930   NI        0.781977    0.190316    0.505534     0.004307
NI1931   NI        0.043626    0.233294    0.462295     0.004307
NI1932   NI        0.087759    0.218454    0.454702     0.004307
NI1933   NI        0.061370    0.220481    0.504452     0.004307
PD1934   PD        0.112284    0.213638    0.492722     0.005394
PD1935   PD        0.108731    0.249001    0.463021     0.005394
PD1936   PD        0.142677    0.213531    0.460446     0.005394
PD1937   PD        0.142087    0.248912    0.495496     0.005394
NI1938   NI        0.187189    0.194720    0.502869     0.004307
PD1939   PD        0.178667    0.250059    0.462755     0.005394
PD1940   PD        0.212867    0.213213    0.459515     0.005394
PD1941   PD        0.212148    0.247945    0.493775     0.005394
PD1942   PD        0.247359    0.215418    0.495780     0.005394
PD1943   PD        0.246117    0.249398    0.461187     0.005394
PD1944   PD        0.279899    0.215189    0.460299     0.005394
PD1945   PD        0.294459    0.224715    0.482526     0.005394
PD1946   PD        0.314973    0.214923    0.494150     0.005394
PD1947   PD        0.315320    0.248413    0.460255     0.005394
PD1948   PD        0.350538    0.215285    0.462142     0.005394
PD1949   PD        0.364557    0.235232    0.502583     0.005394
PD1950   PD        0.370508    0.226874    0.471434     0.005394
PD1951   PD        0.360619    0.272389    0.466582     0.005394
PD1952   PD        0.406062    0.229390    0.439077     0.005394
PD1953   PD        0.420398    0.249181    0.495646     0.005394
PD1954   PD        0.465611    0.230765    0.490232     0.005394
PD1955   PD        0.455136    0.250202    0.461208     0.005394
PD1956   PD        0.486416    0.216836    0.460991     0.005394
PD1957   PD        0.486167    0.248983    0.495711     0.005394
PD1958   PD        0.522299    0.214879    0.494950     0.005394
PD1959   PD        0.521893    0.249538    0.461787     0.005394
PD1960   PD        0.555990    0.216292    0.460099     0.005394
PD1961   PD        0.556204    0.248171    0.498045     0.005394
PD1962   PD        0.590643    0.215331    0.495208     0.005394
PD1963   PD        0.590691    0.249792    0.460771     0.005394
PD1964   PD        0.625111    0.215722    0.461055     0.005394
PD1965   PD        0.624308    0.249518    0.496262     0.005394
PD1966   PD        0.660422    0.217248    0.493794     0.005394
PD1967   PD        0.659010    0.249339    0.461691     0.005394
NI1968   NI        0.704595    0.227208    0.442656     0.004307
PD1969   PD        0.694492    0.250308    0.493456     0.005394
NI1970   NI        0.727355    0.208322    0.480924     0.004307
PD1971   PD        0.727710    0.250973    0.460943     0.005394
NI1972   NI        0.753581    0.224229    0.439662     0.004307
PD1973   PD        0.761444    0.251650    0.494605     0.005394
NI1974   NI        0.797601    0.250521    0.459401     0.004307
NI1975   NI        0.041088    0.281592    0.496510     0.004307
NI1976   NI        0.018520    0.325931    0.471763     0.004307
PD1977   PD        0.075801    0.284303    0.460794     0.005394
PD1978   PD        0.073443    0.316660    0.496473     0.005394
NI1979   NI        0.102901    0.295397    0.477332     0.004307
PD1980   PD        0.109171    0.318549    0.460884     0.005394
PD1981   PD        0.141484    0.283121    0.459771     0.005394
PD1982   PD        0.143816    0.318946    0.496931     0.005394
PD1983   PD        0.176434    0.281203    0.495531     0.005394
PD1984   PD        0.177983    0.318944    0.462238     0.005394
PD1985   PD        0.213486    0.285107    0.460108     0.005394
PD1986   PD        0.209102    0.316491    0.495119     0.005394
PD1987   PD        0.245706    0.282508    0.495433     0.005394
PD1988   PD        0.244469    0.317539    0.462330     0.005394
PD1989   PD        0.280508    0.281527    0.459448     0.005394
PD1990   PD        0.280537    0.316879    0.495339     0.005394
PD1991   PD        0.303966    0.304883    0.496514     0.005394
PD1992   PD        0.323288    0.325220    0.454074     0.005394
PD1993   PD        0.346842    0.282866    0.458492     0.005394
PD1994   PD        0.363621    0.317868    0.483941     0.005394
PD1995   PD        0.373265    0.274829    0.475113     0.005394
PD1996   PD        0.370647    0.317594    0.449588     0.005394
PD1997   PD        0.418875    0.281869    0.460482     0.005394
PD1998   PD        0.419013    0.315959    0.492677     0.005394
PD1999   PD        0.452701    0.282407    0.495898     0.005394
PD2000   PD        0.454175    0.315240    0.459982     0.005394
PD2001   PD        0.488332    0.282479    0.460315     0.005394
PD2002   PD        0.486190    0.316130    0.494353     0.005394
PD2003   PD        0.520367    0.281888    0.495146     0.005394
PD2004   PD        0.521465    0.316681    0.460015     0.005394
PD2005   PD        0.555953    0.283348    0.461302     0.005394
PD2006   PD        0.551359    0.331194    0.487583     0.005394
PD2007   PD        0.592112    0.283179    0.496715     0.005394
PD2008   PD        0.590093    0.317407    0.460385     0.005394
PD2009   PD        0.622947    0.283130    0.465154     0.005394
PD2010   PD        0.627254    0.319707    0.493292     0.005394
PD2011   PD        0.659722    0.285920    0.494891     0.005394
PD2012   PD        0.659763    0.316180    0.459575     0.005394
PD2013   PD        0.697764    0.283962    0.458524     0.005394
PD2014   PD        0.695662    0.318548    0.492575     0.005394
PD2015   PD        0.728039    0.285961    0.494567     0.005394
PD2016   PD        0.728021    0.321170    0.458818     0.005394
PD2017   PD        0.760682    0.284263    0.457992     0.005394
PD2018   PD        0.763167    0.319367    0.492247     0.005394
NI2019   NI        0.798180    0.285939    0.492737     0.004307
NI2020   NI        0.802718    0.304484    0.475885     0.004307
NI2021   NI        0.009723    0.326728    0.479115     0.004307
NI2022   NI        0.015944    0.373546    0.473907     0.004307
NI2023   NI        0.046416    0.352852    0.491697     0.004307
NI2024   NI        0.029947    0.400095    0.441201     0.004307
PD2025   PD        0.076358    0.354491    0.459343     0.005394
NI2026   NI        0.058885    0.396549    0.475092     0.004307
PD2027   PD        0.108116    0.350070    0.496868     0.005394
PD2028   PD        0.111512    0.386813    0.461605     0.005394
NI2029   NI        0.139236    0.328145    0.473735     0.004307
PD2030   PD        0.139561    0.386838    0.495294     0.005394
PD2031   PD        0.175257    0.351407    0.497348     0.005394
PD2032   PD        0.174823    0.387190    0.462504     0.005394
PD2033   PD        0.209060    0.358321    0.446486     0.005394
PD2034   PD        0.209999    0.386095    0.496267     0.005394
PD2035   PD        0.242117    0.351666    0.496220     0.005394
PD2036   PD        0.245263    0.386062    0.461734     0.005394
PD2037   PD        0.282710    0.351344    0.460900     0.005394
PD2038   PD        0.278615    0.385226    0.493761     0.005394
PD2039   PD        0.323451    0.373619    0.491246     0.005394
PD2040   PD        0.315918    0.396791    0.451815     0.005394
PD2041   PD        0.347041    0.342254    0.451720     0.005394
PD2042   PD        0.350617    0.385232    0.495984     0.005394
PD2043   PD        0.375022    0.346862    0.516332     0.005394
PD2044   PD        0.403052    0.391513    0.481393     0.005394
PD2045   PD        0.418492    0.351188    0.459307     0.005394
PD2046   PD        0.419736    0.386429    0.493228     0.005394
PD2047   PD        0.452956    0.351591    0.495379     0.005394
PD2048   PD        0.455216    0.385788    0.462718     0.005394
PD2049   PD        0.487160    0.350692    0.461934     0.005394
PD2050   PD        0.487235    0.385158    0.491521     0.005394
PD2051   PD        0.540090    0.343410    0.493184     0.005394
PD2052   PD        0.521381    0.398701    0.466942     0.005394
PD2053   PD        0.574123    0.363762    0.462448     0.005394
PD2054   PD        0.555446    0.387075    0.494212     0.005394
PD2055   PD        0.578865    0.362519    0.514517     0.005394
PD2056   PD        0.586929    0.387995    0.460410     0.005394
PD2057   PD        0.616719    0.371689    0.470791     0.005394
NI2058   NI        0.641837    0.398122    0.497255     0.004307
PD2059   PD        0.658908    0.352469    0.494160     0.005394
PD2060   PD        0.659293    0.387465    0.460619     0.005394
PD2061   PD        0.696196    0.354181    0.461104     0.005394
PD2062   PD        0.696657    0.389066    0.495329     0.005394
PD2063   PD        0.728678    0.353966    0.494811     0.005394
PD2064   PD        0.728042    0.387123    0.460031     0.005394
PD2065   PD        0.759205    0.353543    0.459626     0.005394
PD2066   PD        0.763808    0.387509    0.493031     0.005394
NI2067   NI        0.794588    0.357275    0.493900     0.004307
NI2068   NI        0.794616    0.382333    0.455577     0.004307
NI2069   NI        0.831165    0.353343    0.456204     0.004307
NI2070   NI        0.829429    0.387759    0.492184     0.004307
NI2071   NI        0.001975    0.416046    0.462184     0.004307
NI2072   NI        0.004728    0.456113    0.495575     0.004307
NI2073   NI        0.032317    0.410489    0.503525     0.004307
NI2074   NI        0.027220    0.448849    0.440599     0.004307
PD2075   PD        0.073732    0.420031    0.458652     0.005394
NI2076   NI        0.051245    0.442546    0.481729     0.004307
PD2077   PD        0.107187    0.422318    0.493809     0.005394
NI2078   NI        0.100539    0.468055    0.445672     0.004307
NI2079   NI        0.134658    0.432679    0.437296     0.004307
PD2080   PD        0.142052    0.455235    0.493307     0.005394
PD2081   PD        0.175014    0.419304    0.495271     0.005394
PD2082   PD        0.175301    0.450498    0.458702     0.005394
PD2083   PD        0.196990    0.407210    0.470285     0.005394
PD2084   PD        0.192272    0.458083    0.489337     0.005394
PD2085   PD        0.244469    0.415135    0.485017     0.005394
PD2086   PD        0.244814    0.451324    0.455076     0.005394
PD2087   PD        0.279809    0.420706    0.463371     0.005394
PD2088   PD        0.279213    0.455558    0.497211     0.005394
PD2089   PD        0.313471    0.457105    0.494656     0.005394
PD2090   PD        0.314964    0.453116    0.462177     0.005394
PD2091   PD        0.339295    0.436266    0.466085     0.005394
PD2092   PD        0.348581    0.454435    0.491359     0.005394
PD2093   PD        0.383393    0.420082    0.493064     0.005394
PD2094   PD        0.381208    0.452545    0.459202     0.005394
PD2095   PD        0.418474    0.418447    0.461435     0.005394
PD2096   PD        0.417478    0.454749    0.495173     0.005394
PD2097   PD        0.462121    0.419611    0.492574     0.005394
PD2098   PD        0.465749    0.461483    0.458543     0.005394
PD2099   PD        0.488935    0.419108    0.456875     0.005394
PD2100   PD        0.480387    0.460113    0.500397     0.005394
PD2101   PD        0.520717    0.436440    0.496252     0.005394
PD2102   PD        0.511760    0.472969    0.466491     0.005394
PD2103   PD        0.547770    0.409382    0.461540     0.005394
PD2104   PD        0.540603    0.446017    0.493144     0.005394
PD2105   PD        0.591968    0.421348    0.493123     0.005394
PD2106   PD        0.609542    0.477563    0.459586     0.005394
PD2107   PD        0.625530    0.422400    0.459187     0.005394
PD2108   PD        0.625557    0.457587    0.493905     0.005394
PD2109   PD        0.659017    0.420898    0.493970     0.005394
PD2110   PD        0.659023    0.455925    0.459980     0.005394
PD2111   PD        0.694633    0.421607    0.460257     0.005394
NI2112   NI        0.713083    0.462348    0.509908     0.004307
PD2113   PD        0.729705    0.423256    0.494864     0.005394
PD2114   PD        0.726115    0.456990    0.461709     0.005394
PD2115   PD        0.763488    0.424391    0.457894     0.005394
NI2116   NI        0.773892    0.443288    0.482802     0.004307
NI2117   NI        0.811848    0.437150    0.512617     0.004307
PD2118   PD        0.796827    0.458421    0.459202     0.005394
NI2119   NI        0.831472    0.423726    0.456715     0.004307
NI2120   NI        0.820279    0.454445    0.482633     0.004307
NI2121   NI        0.000714    0.484919    0.459626     0.004307
NI2122   NI        0.054217    0.517854    0.474632     0.004307
NI2123   NI        0.013343    0.527812    0.446345     0.004307
NI2124   NI        0.069220    0.493655    0.443474     0.004307
NI2125   NI        0.076272    0.523187    0.494162     0.004307
PD2126   PD        0.112276    0.491156    0.495710     0.005394
NI2127   NI        0.103641    0.515298    0.457764     0.004307
PD2128   PD        0.143013    0.487193    0.457768     0.005394
PD2129   PD        0.149620    0.525354    0.492389     0.005394
PD2130   PD        0.177033    0.487206    0.494554     0.005394
PD2131   PD        0.171651    0.527737    0.448603     0.005394
PD2132   PD        0.203777    0.492167    0.458401     0.005394
PD2133   PD        0.215196    0.521473    0.496038     0.005394
PD2134   PD        0.221977    0.495513    0.485613     0.005394
PD2135   PD        0.249869    0.546891    0.447410     0.005394
PD2136   PD        0.289471    0.481870    0.452331     0.005394
PD2137   PD        0.276851    0.524717    0.499598     0.005394
PD2138   PD        0.313485    0.499466    0.475616     0.005394
PD2139   PD        0.309135    0.541217    0.447627     0.005394
PD2140   PD        0.343688    0.485727    0.473660     0.005394
PD2141   PD        0.350064    0.531719    0.469768     0.005394
PD2142   PD        0.369510    0.504475    0.502404     0.005394
PD2143   PD        0.387407    0.533505    0.451009     0.005394
PD2144   PD        0.422287    0.486074    0.461775     0.005394
PD2145   PD        0.416666    0.510919    0.504883     0.005394
PD2146   PD        0.448164    0.496630    0.498841     0.005394
PD2147   PD        0.434282    0.523939    0.462219     0.005394
PD2148   PD        0.500852    0.477250    0.448182     0.005394
PD2149   PD        0.492108    0.541344    0.496694     0.005394
PD2150   PD        0.527347    0.508231    0.502339     0.005394
PD2151   PD        0.520392    0.539011    0.465962     0.005394
PD2152   PD        0.567541    0.489905    0.462428     0.005394
PD2153   PD        0.555564    0.522958    0.493891     0.005394
PD2154   PD        0.576557    0.502784    0.505595     0.005394
PD2155   PD        0.602567    0.517157    0.469452     0.005394
PD2156   PD        0.625775    0.490669    0.459465     0.005394
PD2157   PD        0.615631    0.548086    0.493297     0.005394
PD2158   PD        0.659624    0.490671    0.493885     0.005394
PD2159   PD        0.657430    0.525341    0.459162     0.005394
PD2160   PD        0.693762    0.491673    0.459831     0.005394
PD2161   PD        0.693654    0.525912    0.492340     0.005394
PD2162   PD        0.726121    0.491041    0.493286     0.005394
PD2163   PD        0.727079    0.526055    0.457976     0.005394
NI2164   NI        0.777320    0.491939    0.448513     0.004307
PD2165   PD        0.760235    0.525846    0.493566     0.005394
NI2166   NI        0.815908    0.484421    0.513170     0.004307
NI2167   NI        0.794769    0.525295    0.457475     0.004307
NI2168   NI        0.837000    0.482010    0.445511     0.004307
NI2169   NI        0.043290    0.559600    0.493860     0.004307
NI2170   NI        0.042855    0.590702    0.458551     0.004307
NI2171   NI        0.069435    0.568465    0.463302     0.004307
NI2172   NI        0.077642    0.592595    0.493252     0.004307
NI2173   NI        0.105827    0.538405    0.502863     0.004307
PD2174   PD        0.111139    0.592774    0.458487     0.005394
PD2175   PD        0.147255    0.556704    0.458698     0.005394
PD2176   PD        0.145472    0.593247    0.491315     0.005394
PD2177   PD        0.177029    0.567881    0.487739     0.005394
PD2178   PD        0.169917    0.604198    0.455881     0.005394
PD2179   PD        0.206703    0.572292    0.454617     0.005394
NI2180   NI        0.210782    0.625703    0.460414     0.004307
PD2181   PD        0.238925    0.557916    0.488451     0.005394
PD2182   PD        0.248108    0.592280    0.460755     0.005394
PD2183   PD        0.275476    0.571674    0.460025     0.005394
PD2184   PD        0.276008    0.610397    0.488030     0.005394
PD2185   PD        0.320326    0.563954    0.487889     0.005394
PD2186   PD        0.317514    0.600397    0.457737     0.005394
PD2187   PD        0.339716    0.575869    0.449745     0.005394
PD2188   PD        0.356934    0.587815    0.504380     0.005394
PD2189   PD        0.382531    0.557646    0.492623     0.005394
PD2190   PD        0.400723    0.596165    0.469081     0.005394
PD2191   PD        0.419631    0.568815    0.460330     0.005394
PD2192   PD        0.418519    0.591097    0.480201     0.005394
PD2193   PD        0.456461    0.559193    0.484770     0.005394
PD2194   PD        0.449188    0.604555    0.458035     0.005394
PD2195   PD        0.493995    0.566038    0.456230     0.005394
PD2196   PD        0.472088    0.597853    0.499151     0.005394
PD2197   PD        0.524178    0.564669    0.493659     0.005394
PD2198   PD        0.529320    0.616827    0.440113     0.005394
PD2199   PD        0.560617    0.573952    0.460124     0.005394
PD2200   PD        0.565020    0.607984    0.482148     0.005394
PD2201   PD        0.591397    0.557620    0.493244     0.005394
PD2202   PD        0.586007    0.614217    0.450706     0.005394
PD2203   PD        0.623909    0.560116    0.460936     0.005394
PD2204   PD        0.630480    0.594089    0.500319     0.005394
PD2205   PD        0.660776    0.559171    0.493130     0.005394
PD2206   PD        0.658365    0.593479    0.459847     0.005394
PD2207   PD        0.692535    0.558551    0.460571     0.005394
PD2208   PD        0.693446    0.594848    0.493584     0.005394
PD2209   PD        0.726597    0.561784    0.492267     0.005394
PD2210   PD        0.723804    0.594379    0.458930     0.005394
PD2211   PD        0.761007    0.560347    0.460069     0.005394
NI2212   NI        0.757253    0.596604    0.488718     0.004307
NI2213   NI        0.795368    0.561025    0.490981     0.004307
NI2214   NI        0.818464    0.609372    0.467570     0.004307
NI2215   NI        0.059379    0.644892    0.431202     0.004307
NI2216   NI        0.078931    0.659535    0.491721     0.004307
NI2217   NI        0.112696    0.625948    0.492337     0.004307
NI2218   NI        0.113136    0.665072    0.467969     0.004307
NI2219   NI        0.133303    0.633887    0.460947     0.004307
NI2220   NI        0.135895    0.671113    0.492184     0.004307
NI2221   NI        0.169002    0.637059    0.493993     0.004307
NI2222   NI        0.173149    0.661723    0.459516     0.004307
NI2223   NI        0.202211    0.655443    0.452215     0.004307
NI2224   NI        0.203984    0.671039    0.491705     0.004307
PD2225   PD        0.235836    0.623658    0.497313     0.005394
NI2226   NI        0.239402    0.672788    0.456979     0.004307
NI2227   NI        0.277669    0.654123    0.444734     0.004307
PD2228   PD        0.276417    0.673190    0.490966     0.005394
PD2229   PD        0.328315    0.624487    0.497369     0.005394
PD2230   PD        0.309394    0.662608    0.458096     0.005394
PD2231   PD        0.336973    0.623172    0.458077     0.005394
PD2232   PD        0.344495    0.672085    0.491119     0.005394
PD2233   PD        0.375069    0.632141    0.487468     0.005394
PD2234   PD        0.388561    0.667015    0.459025     0.005394
PD2235   PD        0.419426    0.632204    0.454221     0.005394
PD2236   PD        0.421670    0.671931    0.493912     0.005394
PD2237   PD        0.448022    0.641347    0.490062     0.005394
PD2238   PD        0.462464    0.689869    0.447030     0.005394
PD2239   PD        0.487584    0.634014    0.456655     0.005394
PD2240   PD        0.467596    0.687450    0.492924     0.005394
PD2241   PD        0.544540    0.640999    0.487127     0.005394
PD2242   PD        0.526380    0.677881    0.461267     0.005394
PD2243   PD        0.552573    0.640682    0.441303     0.005394
NI2244   NI        0.563045    0.657770    0.485820     0.004307
NI2245   NI        0.590716    0.647142    0.486360     0.004307
PD2246   PD        0.591174    0.661563    0.458712     0.005394
NI2247   NI        0.623520    0.649355    0.467739     0.004307
NI2248   NI        0.628759    0.676402    0.488721     0.004307
PD2249   PD        0.659450    0.629024    0.493100     0.005394
NI2250   NI        0.661143    0.677065    0.451730     0.004307
PD2251   PD        0.692066    0.629170    0.459613     0.005394
PD2252   PD        0.694389    0.663301    0.492122     0.005394
PD2253   PD        0.728777    0.629692    0.492627     0.005394
NI2254   NI        0.728408    0.663783    0.460004     0.004307
NI2255   NI        0.760714    0.628773    0.458330     0.004307
NI2256   NI        0.761674    0.662634    0.492692     0.004307
NI2257   NI        0.105095    0.708007    0.488790     0.004307
NI2258   NI        0.143375    0.698442    0.459463     0.004307
NI2259   NI        0.110602    0.750770    0.491543     0.004307
NI2260   NI        0.169144    0.693310    0.499424     0.004307
NI2261   NI        0.178971    0.730886    0.452386     0.004307
NI2262   NI        0.179633    0.710466    0.456398     0.004307
NI2263   NI        0.210331    0.738002    0.489510     0.004307
NI2264   NI        0.247794    0.710385    0.501564     0.004307
NI2265   NI        0.255273    0.741053    0.449673     0.004307
NI2266   NI        0.272077    0.713874    0.475143     0.004307
NI2267   NI        0.277825    0.738562    0.489115     0.004307
NI2268   NI        0.310460    0.705519    0.502689     0.004307
NI2269   NI        0.307599    0.733109    0.450550     0.004307
PD2270   PD        0.346517    0.704766    0.456420     0.005394
PD2271   PD        0.344697    0.733221    0.484273     0.005394
PD2272   PD        0.380350    0.704024    0.491788     0.005394
PD2273   PD        0.385436    0.737988    0.459475     0.005394
PD2274   PD        0.419760    0.705344    0.461694     0.005394
NI2275   NI        0.406105    0.754835    0.494208     0.004307
PD2276   PD        0.456845    0.706442    0.492389     0.005394
NI2277   NI        0.468260    0.729462    0.430816     0.004307
PD2278   PD        0.491602    0.709468    0.458763     0.005394
NI2279   NI        0.465629    0.736192    0.491007     0.004307
PD2280   PD        0.526223    0.711335    0.492287     0.005394
PD2281   PD        0.523415    0.743475    0.457757     0.005394
NI2282   NI        0.565178    0.720160    0.464236     0.004307
NI2283   NI        0.558539    0.745960    0.490866     0.004307
NI2284   NI        0.603927    0.717872    0.498222     0.004307
NI2285   NI        0.593937    0.745751    0.439407     0.004307
NI2286   NI        0.627705    0.715034    0.456787     0.004307
NI2287   NI        0.634549    0.747278    0.491710     0.004307
NI2288   NI        0.664560    0.707438    0.486863     0.004307
NI2289   NI        0.674275    0.744807    0.465739     0.004307
NI2290   NI        0.693128    0.698054    0.459196     0.004307
NI2291   NI        0.710533    0.726899    0.492364     0.004307
NI2292   NI        0.727445    0.696067    0.490523     0.004307
NI2293   NI        0.170062    0.778577    0.452347     0.004307
NI2294   NI        0.215167    0.765449    0.461354     0.004307
NI2295   NI        0.250834    0.763222    0.495526     0.004307
NI2296   NI        0.243031    0.803854    0.454786     0.004307
NI2297   NI        0.280516    0.771564    0.456474     0.004307
NI2298   NI        0.268348    0.806942    0.493545     0.004307
NI2299   NI        0.315516    0.770473    0.489466     0.004307
NI2300   NI        0.314294    0.804748    0.455118     0.004307
NI2301   NI        0.351801    0.771036    0.458798     0.004307
NI2302   NI        0.345332    0.810628    0.515689     0.004307
NI2303   NI        0.389083    0.801005    0.482408     0.004307
NI2304   NI        0.384881    0.805958    0.458235     0.004307
PD2305   PD        0.419369    0.772591    0.458579     0.005394
NI2306   NI        0.403283    0.807891    0.500329     0.004307
NI2307   NI        0.454094    0.761169    0.490944     0.004307
NI2308   NI        0.468550    0.835152    0.454130     0.004307
NI2309   NI        0.474763    0.765519    0.447461     0.004307
NI2310   NI        0.493418    0.831440    0.494687     0.004307
NI2311   NI        0.531621    0.783992    0.478614     0.004307
NI2312   NI        0.517323    0.803440    0.459853     0.004307
NI2313   NI        0.575376    0.784701    0.460871     0.004307
NI2314   NI        0.569283    0.796015    0.497749     0.004307
NI2315   NI        0.599758    0.780614    0.496584     0.004307
NI2316   NI        0.597013    0.820140    0.467607     0.004307
NI2317   NI        0.622944    0.779147    0.455620     0.004307
NI2318   NI        0.676638    0.755525    0.513469     0.004307
NI2319   NI        0.347144    0.827342    0.482569     0.004307
NI2320   NI        0.390000    0.848795    0.479579     0.004307
NI2321   NI        0.418041    0.829870    0.459117     0.004307
NI2322   NI        0.446329    0.825836    0.496937     0.004307
NI2323   NI        0.509884    0.861749    0.457196     0.004307
NI2324   NI        0.247728    0.043167    0.525832     0.004307
PD2325   PD        0.281730    0.044925    0.561700     0.005394
NI2326   NI        0.316528    0.064006    0.536432     0.004307
PD2327   PD        0.350102    0.044847    0.563791     0.005394
PD2328   PD        0.384648    0.044832    0.528931     0.005394
NI2329   NI        0.410506    0.012285    0.509236     0.004307
PD2330   PD        0.418387    0.044258    0.562895     0.005394
NI2331   NI        0.444012    0.058136    0.510123     0.004307
NI2332   NI        0.484700    0.045583    0.561754     0.004307
PD2333   PD        0.520982    0.046360    0.530354     0.005394
NI2334   NI        0.550777    0.027503    0.563511     0.004307
NI2335   NI        0.625121    0.012038    0.526858     0.004307
PD2336   PD        0.179672    0.111527    0.526853     0.005394
NI2337   NI        0.206468    0.056447    0.503804     0.004307
NI2338   NI        0.198944    0.098136    0.578673     0.004307
PD2339   PD        0.248583    0.077231    0.561050     0.005394
NI2340   NI        0.233564    0.087182    0.528365     0.004307
NI2341   NI        0.288365    0.074549    0.511915     0.004307
NI2342   NI        0.271039    0.122656    0.542845     0.004307
PD2343   PD        0.315853    0.077898    0.564224     0.005394
PD2344   PD        0.314402    0.111555    0.528087     0.005394
NI2345   NI        0.327050    0.052649    0.523238     0.004307
NI2346   NI        0.348910    0.110187    0.575214     0.004307
PD2347   PD        0.383379    0.078556    0.564859     0.005394
PD2348   PD        0.382569    0.111251    0.529832     0.005394
PD2349   PD        0.418527    0.078420    0.530333     0.005394
PD2350   PD        0.416037    0.113002    0.564324     0.005394
NI2351   NI        0.465384    0.068214    0.585203     0.004307
PD2352   PD        0.452382    0.112777    0.528948     0.005394
PD2353   PD        0.487171    0.079052    0.528712     0.005394
PD2354   PD        0.486034    0.113476    0.564051     0.005394
PD2355   PD        0.521338    0.080090    0.564238     0.005394
PD2356   PD        0.520865    0.114968    0.529802     0.005394
PD2357   PD        0.556199    0.078960    0.529639     0.005394
NI2358   NI        0.575817    0.106994    0.562972     0.004307
NI2359   NI        0.602481    0.078603    0.536839     0.004307
PD2360   PD        0.589399    0.112867    0.530396     0.005394
NI2361   NI        0.622945    0.083690    0.527455     0.004307
PD2362   PD        0.622769    0.113300    0.565118     0.005394
PD2363   PD        0.659549    0.114050    0.529832     0.005394
PD2364   PD        0.111118    0.179737    0.527757     0.005394
PD2365   PD        0.145952    0.144880    0.526129     0.005394
PD2366   PD        0.146319    0.180002    0.561425     0.005394
PD2367   PD        0.179387    0.145179    0.561972     0.005394
PD2368   PD        0.179360    0.178516    0.528490     0.005394
PD2369   PD        0.214859    0.146825    0.528529     0.005394
PD2370   PD        0.213347    0.179176    0.563614     0.005394
PD2371   PD        0.248347    0.146733    0.562936     0.005394
NI2372   NI        0.240966    0.169590    0.511619     0.004307
PD2373   PD        0.281115    0.146936    0.529347     0.005394
PD2374   PD        0.281680    0.179657    0.563706     0.005394
PD2375   PD        0.315860    0.146044    0.563594     0.005394
PD2376   PD        0.308238    0.188013    0.542366     0.005394
PD2377   PD        0.349519    0.146052    0.529260     0.005394
PD2378   PD        0.349274    0.181353    0.563731     0.005394
PD2379   PD        0.384004    0.147564    0.563564     0.005394
PD2380   PD        0.382594    0.178584    0.529603     0.005394
PD2381   PD        0.416794    0.146304    0.529063     0.005394
PD2382   PD        0.418242    0.181353    0.562686     0.005394
PD2383   PD        0.452425    0.147020    0.563188     0.005394
PD2384   PD        0.452253    0.180987    0.528295     0.005394
PD2385   PD        0.485630    0.146115    0.529968     0.005394
PD2386   PD        0.485856    0.174034    0.543445     0.005394
PD2387   PD        0.520371    0.148041    0.564994     0.005394
NI2388   NI        0.508219    0.170898    0.549819     0.004307
PD2389   PD        0.554906    0.147235    0.528205     0.005394
PD2390   PD        0.577311    0.201061    0.557256     0.005394
PD2391   PD        0.589096    0.148082    0.565090     0.005394
PD2392   PD        0.590104    0.180868    0.527964     0.005394
NI2393   NI        0.601794    0.134489    0.519119     0.004307
PD2394   PD        0.621754    0.182144    0.563046     0.005394
PD2395   PD        0.658808    0.148387    0.564478     0.005394
PD2396   PD        0.658758    0.184865    0.528344     0.005394
PD2397   PD        0.692705    0.149801    0.529609     0.005394
PD2398   PD        0.693820    0.183029    0.562593     0.005394
NI2399   NI        0.728368    0.182419    0.528641     0.004307
NI2400   NI        0.020957    0.246119    0.495488     0.004307
NI2401   NI        0.043024    0.181009    0.527656     0.004307
NI2402   NI        0.074694    0.248528    0.562947     0.004307
PD2403   PD        0.108741    0.212701    0.563630     0.005394
NI2404   NI        0.101144    0.232427    0.533509     0.004307
PD2405   PD        0.144553    0.212636    0.529492     0.005394
PD2406   PD        0.145435    0.246292    0.563654     0.005394
PD2407   PD        0.177767    0.213179    0.564464     0.005394
PD2408   PD        0.178101    0.248184    0.527960     0.005394
PD2409   PD        0.212787    0.214568    0.528880     0.005394
PD2410   PD        0.210085    0.248277    0.562973     0.005394
PD2411   PD        0.245958    0.236997    0.553615     0.005394
PD2412   PD        0.246308    0.249968    0.528755     0.005394
PD2413   PD        0.280730    0.216903    0.528875     0.005394
PD2414   PD        0.282213    0.249285    0.563392     0.005394
PD2415   PD        0.314510    0.214796    0.563888     0.005394
PD2416   PD        0.313894    0.247666    0.528436     0.005394
PD2417   PD        0.349546    0.215552    0.528768     0.005394
PD2418   PD        0.349323    0.249340    0.563371     0.005394
PD2419   PD        0.383925    0.213992    0.563902     0.005394
PD2420   PD        0.384586    0.249097    0.529913     0.005394
PD2421   PD        0.440744    0.235973    0.508721     0.005394
PD2422   PD        0.418788    0.248214    0.562676     0.005394
PD2423   PD        0.452532    0.214931    0.562606     0.005394
PD2424   PD        0.452073    0.247427    0.529590     0.005394
PD2425   PD        0.486119    0.214535    0.529624     0.005394
PD2426   PD        0.486664    0.251866    0.566177     0.005394
PD2427   PD        0.520401    0.217370    0.565495     0.005394
PD2428   PD        0.520527    0.248796    0.530208     0.005394
NI2429   NI        0.575133    0.192481    0.521364     0.004307
PD2430   PD        0.555926    0.253974    0.563591     0.005394
PD2431   PD        0.588035    0.215201    0.564957     0.005394
PD2432   PD        0.590172    0.249252    0.530099     0.005394
PD2433   PD        0.625854    0.215065    0.530550     0.005394
PD2434   PD        0.624921    0.250347    0.564926     0.005394
NI2435   NI        0.667035    0.217264    0.540385     0.004307
NI2436   NI        0.660519    0.248864    0.533254     0.004307
NI2437   NI        0.719238    0.220193    0.515229     0.004307
PD2438   PD        0.695690    0.250700    0.564780     0.005394
PD2439   PD        0.728062    0.216818    0.564441     0.005394
PD2440   PD        0.727993    0.250134    0.528806     0.005394
NI2441   NI        0.761757    0.216406    0.530319     0.004307
NI2442   NI        0.762111    0.224552    0.534715     0.004307
NI2443   NI        0.796131    0.251855    0.526997     0.004307
NI2444   NI        0.039862    0.282287    0.567487     0.004307
NI2445   NI        0.038055    0.316347    0.532471     0.004307
NI2446   NI        0.062558    0.263067    0.517015     0.004307
NI2447   NI        0.060136    0.305868    0.540457     0.004307
NI2448   NI        0.096969    0.294784    0.584433     0.004307
PD2449   PD        0.108510    0.317251    0.531821     0.005394
PD2450   PD        0.143180    0.281467    0.529397     0.005394
NI2451   NI        0.139910    0.301824    0.567169     0.004307
PD2452   PD        0.178098    0.280921    0.561646     0.005394
PD2453   PD        0.175973    0.316658    0.529790     0.005394
PD2454   PD        0.212570    0.283816    0.529307     0.005394
PD2455   PD        0.211409    0.318061    0.563543     0.005394
PD2456   PD        0.244689    0.282724    0.563351     0.005394
PD2457   PD        0.246374    0.317937    0.529263     0.005394
PD2458   PD        0.310277    0.297689    0.525883     0.005394
PD2459   PD        0.280728    0.317047    0.562392     0.005394
PD2460   PD        0.315623    0.284712    0.561488     0.005394
PD2461   PD        0.341575    0.304803    0.524951     0.005394
PD2462   PD        0.346998    0.269114    0.527448     0.005394
PD2463   PD        0.334049    0.310696    0.575536     0.005394
PD2464   PD        0.383192    0.283509    0.563465     0.005394
PD2465   PD        0.385163    0.295693    0.518278     0.005394
PD2466   PD        0.418527    0.281015    0.529408     0.005394
PD2467   PD        0.416424    0.318257    0.562579     0.005394
PD2468   PD        0.453557    0.284176    0.563596     0.005394
PD2469   PD        0.452569    0.317742    0.529182     0.005394
PD2470   PD        0.486709    0.282696    0.530353     0.005394
PD2471   PD        0.489392    0.320887    0.564655     0.005394
PD2472   PD        0.519431    0.284758    0.561033     0.005394
PD2473   PD        0.539621    0.308543    0.526143     0.005394
PD2474   PD        0.556140    0.283601    0.528798     0.005394
PD2475   PD        0.553911    0.316040    0.561406     0.005394
PD2476   PD        0.606286    0.294159    0.537349     0.005394
PD2477   PD        0.589388    0.319042    0.529762     0.005394
PD2478   PD        0.646581    0.272303    0.521745     0.005394
PD2479   PD        0.623288    0.317759    0.562732     0.005394
PD2480   PD        0.660112    0.285374    0.562276     0.005394
PD2481   PD        0.659923    0.318639    0.529092     0.005394
PD2482   PD        0.693032    0.284148    0.530006     0.005394
PD2483   PD        0.694164    0.319443    0.560579     0.005394
PD2484   PD        0.729218    0.286910    0.559436     0.005394
PD2485   PD        0.729056    0.318332    0.526069     0.005394
PD2486   PD        0.763364    0.284679    0.527312     0.005394
PD2487   PD        0.762409    0.318361    0.564122     0.005394
NI2488   NI        0.796789    0.286591    0.562297     0.004307
NI2489   NI        0.795678    0.319829    0.526501     0.004307
NI2490   NI        0.037908    0.352799    0.563916     0.004307
NI2491   NI        0.013045    0.394401    0.556306     0.004307
PD2492   PD        0.071948    0.350995    0.530525     0.005394
PD2493   PD        0.073596    0.384958    0.563593     0.005394
PD2494   PD        0.107044    0.351862    0.563875     0.005394
PD2495   PD        0.106274    0.387114    0.528973     0.005394
PD2496   PD        0.143992    0.349518    0.533258     0.005394
PD2497   PD        0.141103    0.385479    0.563833     0.005394
NI2498   NI        0.154898    0.343966    0.579758     0.004307
PD2499   PD        0.175119    0.385345    0.530953     0.005394
PD2500   PD        0.211260    0.350789    0.530106     0.005394
PD2501   PD        0.211926    0.386243    0.561446     0.005394
PD2502   PD        0.245746    0.353115    0.563859     0.005394
PD2503   PD        0.241511    0.384745    0.533755     0.005394
PD2504   PD        0.278484    0.353462    0.531896     0.005394
PD2505   PD        0.280647    0.386574    0.563012     0.005394
PD2506   PD        0.314330    0.349918    0.561648     0.005394
PD2507   PD        0.313512    0.386816    0.528092     0.005394
PD2508   PD        0.349855    0.352765    0.527878     0.005394
PD2509   PD        0.364791    0.387422    0.567945     0.005394
PD2510   PD        0.362283    0.371660    0.564735     0.005394
PD2511   PD        0.383975    0.386679    0.527722     0.005394
PD2512   PD        0.421447    0.354101    0.527248     0.005394
PD2513   PD        0.430528    0.409510    0.563168     0.005394
PD2514   PD        0.475075    0.338892    0.568697     0.005394
PD2515   PD        0.438293    0.374350    0.530547     0.005394
PD2516   PD        0.486499    0.352683    0.526956     0.005394
PD2517   PD        0.486256    0.384953    0.562566     0.005394
PD2518   PD        0.524651    0.355798    0.585813     0.005394
PD2519   PD        0.514732    0.391992    0.531461     0.005394
PD2520   PD        0.555807    0.352521    0.526720     0.005394
PD2521   PD        0.581722    0.370791    0.558389     0.005394
PD2522   PD        0.582911    0.358934    0.575934     0.005394
PD2523   PD        0.575442    0.396003    0.546523     0.005394
PD2524   PD        0.626395    0.353498    0.529345     0.005394
PD2525   PD        0.617570    0.389487    0.564707     0.005394
PD2526   PD        0.657194    0.352808    0.563660     0.005394
PD2527   PD        0.657114    0.387626    0.526603     0.005394
PD2528   PD        0.691506    0.354121    0.527003     0.005394
PD2529   PD        0.690619    0.388071    0.562041     0.005394
PD2530   PD        0.728288    0.352807    0.562367     0.005394
PD2531   PD        0.729340    0.385262    0.527108     0.005394
PD2532   PD        0.763996    0.354216    0.526626     0.005394
PD2533   PD        0.761795    0.389160    0.561881     0.005394
PD2534   PD        0.797152    0.355773    0.561271     0.005394
NI2535   NI        0.795552    0.389530    0.526819     0.004307
NI2536   NI        0.011069    0.400400    0.544509     0.004307
PD2537   PD        0.038632    0.421693    0.562395     0.005394
NI2538   NI        0.036817    0.454017    0.527683     0.004307
PD2539   PD        0.072468    0.419985    0.528052     0.005394
PD2540   PD        0.072628    0.455399    0.562752     0.005394
PD2541   PD        0.106823    0.421347    0.564863     0.005394
PD2542   PD        0.107105    0.455241    0.527880     0.005394
PD2543   PD        0.141766    0.420258    0.528454     0.005394
PD2544   PD        0.140553    0.452848    0.563970     0.005394
PD2545   PD        0.174158    0.419839    0.563184     0.005394
PD2546   PD        0.174422    0.454391    0.528305     0.005394
PD2547   PD        0.208369    0.414891    0.516512     0.005394
PD2548   PD        0.201150    0.465648    0.559993     0.005394
PD2549   PD        0.244008    0.422742    0.564758     0.005394
PD2550   PD        0.255044    0.460828    0.531966     0.005394
PD2551   PD        0.278150    0.419568    0.526562     0.005394
PD2552   PD        0.277602    0.454599    0.565007     0.005394
PD2553   PD        0.314124    0.423411    0.562099     0.005394
PD2554   PD        0.315701    0.452814    0.524975     0.005394
PD2555   PD        0.347595    0.419012    0.527331     0.005394
PD2556   PD        0.346506    0.452216    0.562500     0.005394
PD2557   PD        0.400698    0.445459    0.556348     0.005394
PD2558   PD        0.382088    0.448320    0.537775     0.005394
PD2559   PD        0.417698    0.419112    0.527819     0.005394
PD2560   PD        0.423298    0.452933    0.561157     0.005394
PD2561   PD        0.474138    0.427392    0.580255     0.005394
PD2562   PD        0.447652    0.455413    0.522510     0.005394
PD2563   PD        0.484981    0.424959    0.530962     0.005394
PD2564   PD        0.479176    0.465047    0.554080     0.005394
PD2565   PD        0.521965    0.420802    0.565062     0.005394
PD2566   PD        0.527890    0.448363    0.539457     0.005394
PD2567   PD        0.550874    0.435044    0.539922     0.005394
PD2568   PD        0.555446    0.455625    0.559902     0.005394
PD2569   PD        0.596307    0.437549    0.554680     0.005394
PD2570   PD        0.587202    0.466629    0.537615     0.005394
PD2571   PD        0.633322    0.415659    0.540104     0.005394
NI2572   NI        0.647651    0.459703    0.558067     0.004307
PD2573   PD        0.661360    0.423832    0.563006     0.005394
PD2574   PD        0.669937    0.482762    0.553961     0.005394
PD2575   PD        0.695099    0.422527    0.529177     0.005394
PD2576   PD        0.725075    0.421294    0.561194     0.005394
NI2577   NI        0.735031    0.444451    0.547330     0.004307
NI2578   NI        0.746177    0.444305    0.536885     0.004307
NI2579   NI        0.749925    0.431969    0.522980     0.004307
NI2580   NI        0.766732    0.459751    0.576771     0.004307
NI2581   NI        0.794261    0.423276    0.559131     0.004307
NI2582   NI        0.817682    0.444344    0.537750     0.004307
NI2583   NI        0.866720    0.453018    0.529353     0.004307
NI2584   NI        0.040865    0.489780    0.560241     0.004307
NI2585   NI        0.042776    0.525288    0.525726     0.004307
NI2586   NI        0.067585    0.476135    0.508555     0.004307
PD2587   PD        0.076580    0.523566    0.560908     0.005394
NI2588   NI        0.082150    0.496122    0.589377     0.004307
NI2589   NI        0.117411    0.525970    0.528455     0.004307
NI2590   NI        0.150572    0.508829    0.526296     0.004307
NI2591   NI        0.132045    0.520100    0.571844     0.004307
PD2592   PD        0.176932    0.488203    0.562275     0.005394
PD2593   PD        0.163802    0.520473    0.537633     0.005394
PD2594   PD        0.208092    0.487430    0.525035     0.005394
PD2595   PD        0.223496    0.530167    0.547425     0.005394
PD2596   PD        0.248801    0.493582    0.564433     0.005394
PD2597   PD        0.243597    0.538795    0.530433     0.005394
PD2598   PD        0.277063    0.488829    0.531120     0.005394
PD2599   PD        0.270663    0.536106    0.566292     0.005394
PD2600   PD        0.313853    0.483139    0.562571     0.005394
PD2601   PD        0.316423    0.519662    0.528195     0.005394
PD2602   PD        0.357647    0.501899    0.547488     0.005394
PD2603   PD        0.333631    0.536759    0.568909     0.005394
PD2604   PD        0.382756    0.489280    0.562351     0.005394
PD2605   PD        0.386526    0.536302    0.530114     0.005394
PD2606   PD        0.416936    0.502366    0.508441     0.005394
PD2607   PD        0.414544    0.530034    0.568326     0.005394
PD2608   PD        0.458075    0.508913    0.564173     0.005394
PD2609   PD        0.452840    0.536241    0.525278     0.005394
PD2610   PD        0.481941    0.500749    0.523230     0.005394
PD2611   PD        0.475652    0.523644    0.565111     0.005394
PD2612   PD        0.529395    0.484697    0.565638     0.005394
PD2613   PD        0.523367    0.526397    0.524820     0.005394
PD2614   PD        0.554498    0.490408    0.525966     0.005394
PD2615   PD        0.563690    0.520025    0.572909     0.005394
PD2616   PD        0.603724    0.496379    0.569281     0.005394
PD2617   PD        0.594915    0.548304    0.530741     0.005394
PD2618   PD        0.626076    0.490662    0.526850     0.005394
PD2619   PD        0.641275    0.521397    0.561880     0.005394
NI2620   NI        0.659594    0.484978    0.581216     0.004307
PD2621   PD        0.661825    0.523287    0.523910     0.005394
PD2622   PD        0.692504    0.490778    0.526852     0.005394
PD2623   PD        0.691921    0.525341    0.559571     0.005394
NI2624   NI        0.754236    0.514287    0.542512     0.004307
NI2625   NI        0.725101    0.517842    0.505943     0.004307
PD2626   PD        0.761107    0.493130    0.527647     0.005394
NI2627   NI        0.791023    0.526014    0.539471     0.004307
NI2628   NI        0.797631    0.490263    0.561277     0.004307
NI2629   NI        0.796100    0.526189    0.523715     0.004307
NI2630   NI        0.039715    0.524842    0.593019     0.004307
NI2631   NI        0.045241    0.595909    0.526963     0.004307
NI2632   NI        0.077003    0.560210    0.526916     0.004307
NI2633   NI        0.062939    0.610086    0.568856     0.004307
PD2634   PD        0.110767    0.559354    0.560783     0.005394
NI2635   NI        0.113981    0.592607    0.527529     0.004307
PD2636   PD        0.146035    0.556980    0.527667     0.005394
NI2637   NI        0.122323    0.600714    0.573428     0.004307
PD2638   PD        0.177763    0.556719    0.565649     0.005394
NI2639   NI        0.172963    0.590147    0.525906     0.004307
PD2640   PD        0.214153    0.556824    0.528736     0.005394
NI2641   NI        0.181198    0.592308    0.594122     0.004307
PD2642   PD        0.246522    0.553416    0.563233     0.005394
PD2643   PD        0.259110    0.603757    0.535127     0.005394
PD2644   PD        0.280081    0.558624    0.529531     0.005394
PD2645   PD        0.278219    0.592502    0.562662     0.005394
PD2646   PD        0.308944    0.563014    0.550102     0.005394
PD2647   PD        0.303748    0.600985    0.523426     0.005394
PD2648   PD        0.352088    0.574404    0.533650     0.005394
PD2649   PD        0.340165    0.599194    0.554466     0.005394
PD2650   PD        0.387605    0.570121    0.562631     0.005394
PD2651   PD        0.386676    0.606224    0.528250     0.005394
PD2652   PD        0.420241    0.571530    0.526678     0.005394
PD2653   PD        0.420927    0.604925    0.562113     0.005394
PD2654   PD        0.454296    0.557992    0.568809     0.005394
PD2655   PD        0.457086    0.582023    0.544042     0.005394
PD2656   PD        0.487302    0.560259    0.521767     0.005394
PD2657   PD        0.490201    0.588049    0.562856     0.005394
PD2658   PD        0.516345    0.567021    0.560131     0.005394
PD2659   PD        0.512953    0.600804    0.523994     0.005394
PD2660   PD        0.557941    0.559431    0.526464     0.005394
PD2661   PD        0.556787    0.591465    0.564069     0.005394
PD2662   PD        0.586826    0.558684    0.562988     0.005394
NI2663   NI        0.579328    0.618335    0.529096     0.004307
PD2664   PD        0.640271    0.560838    0.533585     0.005394
NI2665   NI        0.625949    0.606208    0.582525     0.004307
PD2666   PD        0.658036    0.559848    0.560949     0.005394
PD2667   PD        0.658280    0.594861    0.526387     0.005394
PD2668   PD        0.693320    0.561318    0.526684     0.005394
NI2669   NI        0.698289    0.585591    0.562876     0.004307
NI2670   NI        0.749155    0.561315    0.573557     0.004307
PD2671   PD        0.727926    0.595122    0.526709     0.005394
PD2672   PD        0.760230    0.559972    0.527076     0.005394
NI2673   NI        0.762779    0.594224    0.560302     0.004307
NI2674   NI        0.805234    0.571088    0.542535     0.004307
NI2675   NI        0.795720    0.592716    0.528624     0.004307
NI2676   NI        0.081501    0.629653    0.528799     0.004307
NI2677   NI        0.121529    0.640628    0.548355     0.004307
NI2678   NI        0.101549    0.674493    0.524550     0.004307
NI2679   NI        0.134985    0.639699    0.527631     0.004307
NI2680   NI        0.129631    0.651617    0.557607     0.004307
PD2681   PD        0.181039    0.625318    0.561763     0.005394
NI2682   NI        0.170878    0.672192    0.526958     0.004307
PD2683   PD        0.205261    0.638910    0.524151     0.005394
NI2684   NI        0.203544    0.670870    0.559719     0.004307
PD2685   PD        0.239995    0.638858    0.559159     0.005394
PD2686   PD        0.239919    0.672612    0.525578     0.005394
PD2687   PD        0.271735    0.637128    0.525669     0.005394
PD2688   PD        0.275610    0.670862    0.557652     0.005394
PD2689   PD        0.321921    0.632397    0.582282     0.005394
PD2690   PD        0.309743    0.669831    0.523576     0.005394
PD2691   PD        0.352190    0.622611    0.537346     0.005394
NI2692   NI        0.346878    0.672756    0.571616     0.004307
PD2693   PD        0.372937    0.633841    0.557198     0.005394
PD2694   PD        0.379079    0.670999    0.526164     0.005394
PD2695   PD        0.431215    0.626239    0.519862     0.005394
PD2696   PD        0.424966    0.674413    0.562697     0.005394
PD2697   PD        0.456332    0.636925    0.564529     0.005394
PD2698   PD        0.447204    0.674270    0.535277     0.005394
PD2699   PD        0.479442    0.630153    0.522498     0.005394
PD2700   PD        0.490776    0.670825    0.557967     0.005394
PD2701   PD        0.519844    0.623980    0.560478     0.005394
PD2702   PD        0.522275    0.654040    0.526643     0.005394
PD2703   PD        0.568118    0.640888    0.530814     0.005394
PD2704   PD        0.547870    0.663899    0.567395     0.005394
PD2705   PD        0.600136    0.646434    0.561302     0.005394
PD2706   PD        0.597112    0.678274    0.524132     0.005394
NI2707   NI        0.624056    0.640583    0.519879     0.004307
PD2708   PD        0.624974    0.663887    0.561265     0.005394
NI2709   NI        0.664746    0.632107    0.574547     0.004307
NI2710   NI        0.660206    0.662843    0.527987     0.004307
NI2711   NI        0.702781    0.651840    0.524236     0.004307
NI2712   NI        0.693655    0.663176    0.560439     0.004307
NI2713   NI        0.729538    0.628557    0.560605     0.004307
NI2714   NI        0.714883    0.675174    0.562616     0.004307
NI2715   NI        0.762454    0.627795    0.526760     0.004307
NI2716   NI        0.137870    0.708808    0.523795     0.004307
NI2717   NI        0.160499    0.689781    0.572190     0.004307
NI2718   NI        0.181011    0.729507    0.528102     0.004307
NI2719   NI        0.205567    0.706836    0.524344     0.004307
NI2720   NI        0.221637    0.743160    0.550876     0.004307
NI2721   NI        0.242731    0.701062    0.560183     0.004307
NI2722   NI        0.245120    0.738800    0.536561     0.004307
PD2723   PD        0.275360    0.704334    0.523698     0.005394
NI2724   NI        0.275339    0.737332    0.559029     0.004307
PD2725   PD        0.311337    0.703674    0.557741     0.005394
NI2726   NI        0.326249    0.747549    0.525513     0.004307
PD2727   PD        0.341748    0.703897    0.522582     0.005394
NI2728   NI        0.355344    0.758852    0.562596     0.004307
NI2729   NI        0.370402    0.715337    0.575080     0.004307
NI2730   NI        0.377213    0.739761    0.540470     0.004307
PD2731   PD        0.411540    0.705785    0.528651     0.005394
NI2732   NI        0.419732    0.733470    0.560659     0.004307
PD2733   PD        0.446924    0.717457    0.558482     0.005394
NI2734   NI        0.456637    0.758940    0.540280     0.004307
NI2735   NI        0.480260    0.706923    0.526301     0.004307
NI2736   NI        0.483808    0.729699    0.564552     0.004307
NI2737   NI        0.524729    0.712047    0.582948     0.004307
NI2738   NI        0.526229    0.737176    0.526025     0.004307
PD2739   PD        0.564380    0.711179    0.525364     0.005394
NI2740   NI        0.558998    0.742263    0.562778     0.004307
NI2741   NI        0.595136    0.709415    0.560007     0.004307
NI2742   NI        0.604953    0.747401    0.530370     0.004307
NI2743   NI        0.632336    0.711597    0.522684     0.004307
NI2744   NI        0.620108    0.730721    0.558758     0.004307
NI2745   NI        0.669076    0.703379    0.547813     0.004307
NI2746   NI        0.661070    0.730036    0.528717     0.004307
NI2747   NI        0.693123    0.697962    0.525564     0.004307
NI2748   NI        0.204438    0.793430    0.531079     0.004307
NI2749   NI        0.234014    0.762663    0.553998     0.004307
NI2750   NI        0.253356    0.792272    0.533246     0.004307
NI2751   NI        0.282900    0.765702    0.524646     0.004307
NI2752   NI        0.253909    0.799408    0.568200     0.004307
NI2753   NI        0.308860    0.773027    0.559138     0.004307
NI2754   NI        0.299736    0.809686    0.530294     0.004307
NI2755   NI        0.331423    0.764773    0.519252     0.004307
NI2756   NI        0.359662    0.809018    0.562888     0.004307
NI2757   NI        0.389071    0.773554    0.574343     0.004307
NI2758   NI        0.387707    0.794111    0.528973     0.004307
NI2759   NI        0.425976    0.786873    0.515146     0.004307
NI2760   NI        0.425849    0.816039    0.549330     0.004307
NI2761   NI        0.436116    0.776675    0.565921     0.004307
NI2762   NI        0.451734    0.803247    0.528000     0.004307
NI2763   NI        0.499977    0.777487    0.540148     0.004307
NI2764   NI        0.480429    0.795886    0.561020     0.004307
NI2765   NI        0.517931    0.764141    0.562148     0.004307
NI2766   NI        0.521302    0.794631    0.525898     0.004307
NI2767   NI        0.540667    0.763422    0.519917     0.004307
NI2768   NI        0.551629    0.797709    0.563118     0.004307
NI2769   NI        0.598533    0.790289    0.558475     0.004307
NI2770   NI        0.597598    0.804133    0.513370     0.004307
NI2771   NI        0.626420    0.785091    0.520748     0.004307
NI2772   NI        0.416713    0.841526    0.526312     0.004307
NI2773   NI        0.314067    0.044892    0.598098     0.004307
NI2774   NI        0.350367    0.043155    0.631854     0.004307
PD2775   PD        0.384976    0.043518    0.598635     0.005394
PD2776   PD        0.418911    0.044602    0.631464     0.005394
NI2777   NI        0.474662    0.055862    0.608834     0.004307
NI2778   NI        0.497888    0.055647    0.653134     0.004307
PD2779   PD        0.520336    0.044156    0.598127     0.005394
NI2780   NI        0.189080    0.093436    0.585028     0.004307
NI2781   NI        0.200436    0.099129    0.611827     0.004307
NI2782   NI        0.246549    0.077617    0.631765     0.004307
NI2783   NI        0.216404    0.111656    0.622037     0.004307
PD2784   PD        0.279779    0.079187    0.597377     0.005394
NI2785   NI        0.302723    0.100590    0.615432     0.004307
PD2786   PD        0.313963    0.078828    0.632898     0.005394
PD2787   PD        0.315267    0.111535    0.597906     0.005394
PD2788   PD        0.349426    0.077524    0.598280     0.005394
NI2789   NI        0.340223    0.123599    0.651165     0.004307
NI2790   NI        0.371722    0.065810    0.648954     0.004307
PD2791   PD        0.385449    0.112450    0.600154     0.005394
NI2792   NI        0.433868    0.069839    0.619847     0.004307
PD2793   PD        0.418844    0.112659    0.633587     0.005394
PD2794   PD        0.453435    0.079665    0.631952     0.005394
PD2795   PD        0.451154    0.113508    0.597299     0.005394
PD2796   PD        0.487129    0.078867    0.598326     0.005394
PD2797   PD        0.487438    0.112727    0.632532     0.005394
PD2798   PD        0.520042    0.080538    0.631516     0.005394
PD2799   PD        0.520400    0.113003    0.597335     0.005394
PD2800   PD        0.554580    0.079757    0.596196     0.005394
PD2801   PD        0.554564    0.111570    0.631438     0.005394
NI2802   NI        0.588596    0.045286    0.594930     0.004307
PD2803   PD        0.589468    0.113639    0.599728     0.005394
NI2804   NI        0.590349    0.134576    0.638914     0.004307
NI2805   NI        0.655748    0.078666    0.634087     0.004307
NI2806   NI        0.106888    0.186788    0.597384     0.004307
NI2807   NI        0.145446    0.143794    0.595075     0.004307
NI2808   NI        0.144104    0.180913    0.631307     0.004307
NI2809   NI        0.180133    0.144375    0.630344     0.004307
NI2810   NI        0.170395    0.190792    0.605548     0.004307
NI2811   NI        0.187339    0.133750    0.607510     0.004307
NI2812   NI        0.191319    0.182153    0.646669     0.004307
NI2813   NI        0.236386    0.168142    0.643631     0.004307
PD2814   PD        0.247990    0.179162    0.597838     0.005394
PD2815   PD        0.282162    0.145494    0.598399     0.005394
PD2816   PD        0.282349    0.180090    0.630482     0.005394
PD2817   PD        0.315685    0.146107    0.630918     0.005394
NI2818   NI        0.285670    0.169398    0.609614     0.004307
PD2819   PD        0.350935    0.145437    0.597708     0.005394
PD2820   PD        0.349325    0.180430    0.631376     0.005394
PD2821   PD        0.384994    0.145345    0.633498     0.005394
PD2822   PD        0.384031    0.180013    0.597264     0.005394
PD2823   PD        0.419210    0.148615    0.597623     0.005394
PD2824   PD        0.420057    0.182022    0.633120     0.005394
NI2825   NI        0.456347    0.145697    0.639611     0.004307
PD2826   PD        0.452058    0.181532    0.599239     0.005394
NI2827   NI        0.511570    0.158277    0.579982     0.004307
PD2828   PD        0.451970    0.146972    0.631886     0.005394
PD2829   PD        0.520889    0.147648    0.631447     0.005394
PD2830   PD        0.519910    0.183498    0.599399     0.005394
PD2831   PD        0.556466    0.147478    0.597725     0.005394
PD2832   PD        0.556113    0.181365    0.630719     0.005394
PD2833   PD        0.588970    0.147479    0.632443     0.005394
PD2834   PD        0.589010    0.182074    0.598029     0.005394
PD2835   PD        0.624604    0.148518    0.598360     0.005394
PD2836   PD        0.624423    0.183618    0.631259     0.005394
NI2837   NI        0.658468    0.145618    0.630681     0.004307
NI2838   NI        0.684639    0.160464    0.575157     0.004307
NI2839   NI        0.705036    0.149969    0.619524     0.004307
NI2840   NI        0.701087    0.173312    0.623133     0.004307
NI2841   NI        0.744636    0.207411    0.607371     0.004307
NI2842   NI        0.055696    0.246686    0.639483     0.004307
NI2843   NI        0.089296    0.214456    0.628776     0.004307
PD2844   PD        0.108979    0.248916    0.598519     0.005394
PD2845   PD        0.143531    0.212098    0.597919     0.005394
PD2846   PD        0.143117    0.248597    0.631281     0.005394
PD2847   PD        0.179036    0.213229    0.632146     0.005394
PD2848   PD        0.178523    0.248299    0.598694     0.005394
PD2849   PD        0.211532    0.213848    0.596963     0.005394
PD2850   PD        0.213344    0.247658    0.631734     0.005394
PD2851   PD        0.246681    0.214351    0.630863     0.005394
PD2852   PD        0.248051    0.250630    0.597218     0.005394
PD2853   PD        0.282270    0.216091    0.598033     0.005394
PD2854   PD        0.281367    0.248804    0.631824     0.005394
PD2855   PD        0.316193    0.216772    0.632695     0.005394
PD2856   PD        0.316553    0.248141    0.599123     0.005394
PD2857   PD        0.350106    0.215791    0.597350     0.005394
PD2858   PD        0.350661    0.248767    0.631349     0.005394
PD2859   PD        0.383497    0.214381    0.631449     0.005394
PD2860   PD        0.384710    0.247999    0.598938     0.005394
PD2861   PD        0.418490    0.213821    0.598048     0.005394
PD2862   PD        0.417502    0.248964    0.632496     0.005394
PD2863   PD        0.451980    0.217310    0.631131     0.005394
PD2864   PD        0.453407    0.248862    0.598273     0.005394
PD2865   PD        0.486501    0.217656    0.598492     0.005394
PD2866   PD        0.485731    0.252410    0.633205     0.005394
PD2867   PD        0.518954    0.216534    0.632498     0.005394
PD2868   PD        0.520973    0.249279    0.598542     0.005394
PD2869   PD        0.555488    0.216438    0.598861     0.005394
PD2870   PD        0.554266    0.250537    0.632763     0.005394
PD2871   PD        0.589889    0.216196    0.630903     0.005394
PD2872   PD        0.588867    0.251521    0.596276     0.005394
PD2873   PD        0.622548    0.214385    0.599250     0.005394
PD2874   PD        0.624203    0.250490    0.630609     0.005394
PD2875   PD        0.658723    0.216806    0.630304     0.005394
PD2876   PD        0.656883    0.252333    0.597733     0.005394
NI2877   NI        0.714349    0.193405    0.595413     0.004307
PD2878   PD        0.692239    0.252907    0.630315     0.005394
NI2879   NI        0.738490    0.217911    0.630260     0.004307
PD2880   PD        0.727213    0.250298    0.596501     0.005394
NI2881   NI        0.760175    0.253575    0.635822     0.004307
NI2882   NI        0.058893    0.327812    0.584270     0.004307
NI2883   NI        0.073791    0.283776    0.599407     0.004307
NI2884   NI        0.075266    0.317645    0.629742     0.004307
PD2885   PD        0.109162    0.280225    0.631692     0.005394
PD2886   PD        0.107466    0.316567    0.598975     0.005394
PD2887   PD        0.143641    0.282875    0.598477     0.005394
PD2888   PD        0.142987    0.317149    0.631867     0.005394
PD2889   PD        0.178740    0.283177    0.630344     0.005394
PD2890   PD        0.176046    0.316863    0.598590     0.005394
PD2891   PD        0.211556    0.282992    0.597094     0.005394
PD2892   PD        0.211110    0.317058    0.631501     0.005394
PD2893   PD        0.239272    0.269261    0.634359     0.005394
PD2894   PD        0.240670    0.306469    0.606394     0.005394
PD2895   PD        0.280529    0.282774    0.597478     0.005394
PD2896   PD        0.279986    0.316966    0.631678     0.005394
PD2897   PD        0.316377    0.284863    0.631240     0.005394
PD2898   PD        0.324996    0.342990    0.611271     0.005394
PD2899   PD        0.348730    0.282242    0.597787     0.005394
PD2900   PD        0.348930    0.319154    0.630338     0.005394
PD2901   PD        0.383490    0.283973    0.631523     0.005394
PD2902   PD        0.385030    0.317562    0.596442     0.005394
PD2903   PD        0.418010    0.284753    0.595362     0.005394
PD2904   PD        0.424552    0.328729    0.622267     0.005394
PD2905   PD        0.450775    0.285381    0.630622     0.005394
PD2906   PD        0.453861    0.320655    0.597310     0.005394
PD2907   PD        0.485868    0.282782    0.598137     0.005394
PD2908   PD        0.485724    0.320245    0.630962     0.005394
PD2909   PD        0.520240    0.285567    0.633098     0.005394
PD2910   PD        0.513428    0.306714    0.615003     0.005394
PD2911   PD        0.553687    0.283587    0.598020     0.005394
PD2912   PD        0.554611    0.320382    0.630920     0.005394
PD2913   PD        0.589117    0.285413    0.632627     0.005394
PD2914   PD        0.588407    0.313292    0.617751     0.005394
PD2915   PD        0.622689    0.285524    0.596617     0.005394
PD2916   PD        0.621630    0.320505    0.630991     0.005394
PD2917   PD        0.657455    0.285981    0.630273     0.005394
PD2918   PD        0.657400    0.319794    0.596865     0.005394
PD2919   PD        0.689361    0.284965    0.595662     0.005394
NI2920   NI        0.707872    0.308136    0.658654     0.004307
NI2921   NI        0.736227    0.274144    0.604177     0.004307
PD2922   PD        0.726992    0.321295    0.596138     0.005394
PD2923   PD        0.762931    0.285222    0.597018     0.005394
PD2924   PD        0.760957    0.318576    0.629617     0.005394
PD2925   PD        0.797400    0.320230    0.596416     0.005394
NI2926   NI        0.014854    0.364780    0.648617     0.004307
NI2927   NI        0.040958    0.385435    0.599283     0.004307
PD2928   PD        0.074715    0.351699    0.599092     0.005394
PD2929   PD        0.073002    0.386225    0.632133     0.005394
NI2930   NI        0.109259    0.356376    0.630537     0.004307
NI2931   NI        0.095587    0.374989    0.605758     0.004307
NI2932   NI        0.141300    0.346055    0.581318     0.004307
NI2933   NI        0.117196    0.396510    0.643375     0.004307
PD2934   PD        0.176750    0.350500    0.628702     0.005394
PD2935   PD        0.177395    0.386438    0.597399     0.005394
PD2936   PD        0.210529    0.352196    0.597362     0.005394
PD2937   PD        0.219523    0.405532    0.636223     0.005394
PD2938   PD        0.246349    0.352936    0.630611     0.005394
PD2939   PD        0.245519    0.385808    0.599531     0.005394
PD2940   PD        0.279496    0.351437    0.598790     0.005394
PD2941   PD        0.279007    0.385857    0.632779     0.005394
PD2942   PD        0.316563    0.351645    0.631123     0.005394
PD2943   PD        0.314368    0.390369    0.584949     0.005394
PD2944   PD        0.350115    0.351764    0.595810     0.005394
PD2945   PD        0.347557    0.398885    0.633597     0.005394
PD2946   PD        0.382638    0.351859    0.631422     0.005394
PD2947   PD        0.366518    0.399245    0.606975     0.005394
PD2948   PD        0.416342    0.352734    0.594861     0.005394
PD2949   PD        0.418766    0.388352    0.630395     0.005394
PD2950   PD        0.446446    0.341598    0.648192     0.005394
PD2951   PD        0.452145    0.388840    0.596305     0.005394
PD2952   PD        0.486307    0.353735    0.596549     0.005394
PD2953   PD        0.487947    0.380882    0.634107     0.005394
PD2954   PD        0.521945    0.353116    0.630865     0.005394
PD2955   PD        0.520827    0.387129    0.595532     0.005394
PD2956   PD        0.555609    0.355917    0.596375     0.005394
PD2957   PD        0.556475    0.388856    0.629307     0.005394
PD2958   PD        0.589531    0.354004    0.632406     0.005394
PD2959   PD        0.609828    0.381314    0.610774     0.005394
PD2960   PD        0.625345    0.352530    0.597695     0.005394
PD2961   PD        0.624802    0.388376    0.630856     0.005394
NI2962   NI        0.664329    0.365277    0.663330     0.004307
PD2963   PD        0.655498    0.388700    0.595477     0.005394
NI2964   NI        0.717728    0.349081    0.607523     0.004307
PD2965   PD        0.692953    0.386532    0.629541     0.005394
PD2966   PD        0.727806    0.350852    0.629563     0.005394
NI2967   NI        0.737650    0.389056    0.611433     0.004307
PD2968   PD        0.763123    0.353220    0.596865     0.005394
PD2969   PD        0.760639    0.388894    0.629148     0.005394
NI2970   NI        0.794964    0.353390    0.630408     0.004307
NI2971   NI        0.815473    0.393459    0.583152     0.004307
PD2972   PD        0.039003    0.421453    0.630945     0.005394
NI2973   NI        0.038210    0.455672    0.596313     0.004307
PD2974   PD        0.074262    0.419382    0.597322     0.005394
PD2975   PD        0.074737    0.454728    0.631121     0.005394
PD2976   PD        0.107512    0.420543    0.632077     0.005394
PD2977   PD        0.106776    0.455374    0.597197     0.005394
NI2978   NI        0.127192    0.429398    0.583445     0.004307
NI2979   NI        0.127532    0.436032    0.627513     0.004307
PD2980   PD        0.175814    0.422627    0.630922     0.005394
PD2981   PD        0.175957    0.455151    0.597446     0.005394
PD2982   PD        0.212004    0.424146    0.598700     0.005394
PD2983   PD        0.211118    0.454564    0.628856     0.005394
PD2984   PD        0.245803    0.420741    0.631914     0.005394
PD2985   PD        0.244751    0.454350    0.600191     0.005394
PD2986   PD        0.263384    0.410402    0.609366     0.005394
PD2987   PD        0.278926    0.455491    0.634438     0.005394
PD2988   PD        0.321015    0.433242    0.624634     0.005394
PD2989   PD        0.315416    0.454485    0.598304     0.005394
PD2990   PD        0.347774    0.417445    0.597612     0.005394
PD2991   PD        0.346456    0.474130    0.636423     0.005394
PD2992   PD        0.384601    0.419442    0.631091     0.005394
PD2993   PD        0.379538    0.445697    0.616605     0.005394
PD2994   PD        0.415137    0.424644    0.595599     0.005394
PD2995   PD        0.418237    0.451330    0.640458     0.005394
PD2996   PD        0.452047    0.421768    0.629542     0.005394
PD2997   PD        0.464965    0.449508    0.619720     0.005394
PD2998   PD        0.506128    0.393848    0.592819     0.005394
PD2999   PD        0.493682    0.465790    0.639891     0.005394
PD3000   PD        0.519559    0.423575    0.633851     0.005394
PD3001   PD        0.524216    0.451265    0.593526     0.005394
PD3002   PD        0.553320    0.424658    0.601505     0.005394
PD3003   PD        0.543241    0.468956    0.634240     0.005394
PD3004   PD        0.591567    0.420804    0.631819     0.005394
PD3005   PD        0.589870    0.457528    0.595453     0.005394
PD3006   PD        0.626658    0.431924    0.583494     0.005394
PD3007   PD        0.624390    0.453848    0.633660     0.005394
PD3008   PD        0.658839    0.421829    0.631015     0.005394
NI3009   NI        0.672552    0.447961    0.587572     0.004307
PD3010   PD        0.691178    0.420966    0.596624     0.005394
PD3011   PD        0.693458    0.455949    0.630174     0.005394
PD3012   PD        0.725322    0.423282    0.628306     0.005394
PD3013   PD        0.725447    0.456405    0.595386     0.005394
PD3014   PD        0.759005    0.422038    0.593291     0.005394
NI3015   NI        0.756792    0.455286    0.648262     0.004307
NI3016   NI        0.794359    0.424977    0.626973     0.004307
NI3017   NI        0.798627    0.450284    0.602742     0.004307
NI3018   NI        0.035422    0.505038    0.643650     0.004307
NI3019   NI        0.028046    0.532949    0.569315     0.004307
PD3020   PD        0.073368    0.490320    0.596886     0.005394
NI3021   NI        0.075833    0.527472    0.651043     0.004307
PD3022   PD        0.107211    0.488212    0.631772     0.005394
NI3023   NI        0.081862    0.535191    0.605892     0.004307
PD3024   PD        0.142209    0.487649    0.597845     0.005394
PD3025   PD        0.140051    0.525304    0.631140     0.005394
PD3026   PD        0.176269    0.488829    0.630802     0.005394
PD3027   PD        0.176528    0.523260    0.595547     0.005394
PD3028   PD        0.200773    0.484068    0.604483     0.005394
PD3029   PD        0.210265    0.521917    0.632155     0.005394
PD3030   PD        0.244952    0.487875    0.635701     0.005394
PD3031   PD        0.241647    0.524729    0.600956     0.005394
PD3032   PD        0.280076    0.488248    0.596826     0.005394
PD3033   PD        0.280162    0.522069    0.630329     0.005394
PD3034   PD        0.308271    0.496552    0.642187     0.005394
PD3035   PD        0.332310    0.538114    0.617892     0.005394
PD3036   PD        0.341374    0.497248    0.592819     0.005394
PD3037   PD        0.348998    0.521970    0.634044     0.005394
PD3038   PD        0.391422    0.480630    0.629996     0.005394
PD3039   PD        0.397069    0.528078    0.586352     0.005394
PD3040   PD        0.402664    0.489142    0.615532     0.005394
PD3041   PD        0.412314    0.524757    0.636499     0.005394
PD3042   PD        0.449009    0.489779    0.629717     0.005394
PD3043   PD        0.447545    0.527208    0.604302     0.005394
PD3044   PD        0.480809    0.491732    0.602790     0.005394
PD3045   PD        0.506712    0.546663    0.640129     0.005394
PD3046   PD        0.518418    0.496630    0.613270     0.005394
PD3047   PD        0.520635    0.524283    0.594249     0.005394
PD3048   PD        0.554781    0.489101    0.595398     0.005394
PD3049   PD        0.587626    0.526403    0.659243     0.005394
PD3050   PD        0.604320    0.495967    0.623915     0.005394
PD3051   PD        0.594926    0.528976    0.607781     0.005394
PD3052   PD        0.623379    0.492148    0.598517     0.005394
NI3053   NI        0.631571    0.525580    0.641924     0.004307
NI3054   NI        0.646543    0.500177    0.649080     0.004307
PD3055   PD        0.658125    0.526496    0.596832     0.005394
PD3056   PD        0.692330    0.492040    0.595451     0.005394
NI3057   NI        0.709553    0.534758    0.638849     0.004307
PD3058   PD        0.729283    0.490974    0.629228     0.005394
NI3059   NI        0.748130    0.531292    0.610637     0.004307
NI3060   NI        0.772546    0.486995    0.610721     0.004307
NI3061   NI        0.779642    0.508280    0.622819     0.004307
NI3062   NI        0.799527    0.470618    0.640198     0.004307
NI3063   NI        0.795682    0.524632    0.596263     0.004307
NI3064   NI        0.053566    0.562410    0.568840     0.004307
NI3065   NI        0.034336    0.596404    0.628460     0.004307
NI3066   NI        0.105796    0.557583    0.632596     0.004307
NI3067   NI        0.086455    0.582985    0.600351     0.004307
NI3068   NI        0.145012    0.554736    0.598856     0.004307
NI3069   NI        0.130413    0.595194    0.617410     0.004307
NI3070   NI        0.176349    0.574537    0.629499     0.004307
NI3071   NI        0.155827    0.602516    0.608619     0.004307
NI3072   NI        0.213647    0.579473    0.609959     0.004307
PD3073   PD        0.213001    0.591330    0.632022     0.005394
PD3074   PD        0.250551    0.559921    0.632951     0.005394
PD3075   PD        0.237854    0.600511    0.589356     0.005394
PD3076   PD        0.265544    0.569512    0.602650     0.005394
PD3077   PD        0.274555    0.597269    0.640869     0.005394
PD3078   PD        0.317260    0.558724    0.630896     0.005394
PD3079   PD        0.306451    0.593360    0.602588     0.005394
PD3080   PD        0.348185    0.575883    0.592923     0.005394
PD3081   PD        0.339600    0.587191    0.637774     0.005394
PD3082   PD        0.377962    0.560174    0.635345     0.005394
PD3083   PD        0.392738    0.591465    0.594533     0.005394
PD3084   PD        0.421884    0.569013    0.595439     0.005394
PD3085   PD        0.421999    0.600644    0.631653     0.005394
PD3086   PD        0.458057    0.566998    0.626864     0.005394
PD3087   PD        0.442769    0.595383    0.589544     0.005394
PD3088   PD        0.492779    0.554080    0.597783     0.005394
PD3089   PD        0.488431    0.601081    0.632876     0.005394
PD3090   PD        0.515494    0.562388    0.625239     0.005394
PD3091   PD        0.521888    0.592671    0.598657     0.005394
PD3092   PD        0.557792    0.561829    0.604038     0.005394
PD3093   PD        0.566345    0.595979    0.619494     0.005394
PD3094   PD        0.596910    0.567679    0.633622     0.005394
PD3095   PD        0.590785    0.594897    0.594848     0.005394
PD3096   PD        0.624491    0.561699    0.595035     0.005394
NI3097   NI        0.613260    0.595138    0.625642     0.004307
PD3098   PD        0.659793    0.560645    0.629592     0.005394
NI3099   NI        0.662105    0.583718    0.568662     0.004307
NI3100   NI        0.707816    0.556642    0.594094     0.004307
PD3101   PD        0.694276    0.593195    0.628724     0.005394
PD3102   PD        0.726560    0.558353    0.630093     0.005394
NI3103   NI        0.727635    0.594895    0.594896     0.004307
NI3104   NI        0.769520    0.549476    0.614290     0.004307
NI3105   NI        0.757918    0.595270    0.629366     0.004307
NI3106   NI        0.102841    0.647678    0.633180     0.004307
NI3107   NI        0.094028    0.674057    0.590679     0.004307
NI3108   NI        0.125942    0.639159    0.595646     0.004307
NI3109   NI        0.141326    0.672005    0.649579     0.004307
NI3110   NI        0.184885    0.627750    0.620748     0.004307
NI3111   NI        0.171080    0.674985    0.593409     0.004307
NI3112   NI        0.217162    0.652692    0.589318     0.004307
NI3113   NI        0.215181    0.660262    0.629467     0.004307
NI3114   NI        0.239833    0.626488    0.650425     0.004307
NI3115   NI        0.228132    0.644002    0.604615     0.004307
PD3116   PD        0.274824    0.629719    0.592293     0.005394
NI3117   NI        0.293663    0.685471    0.633946     0.004307
NI3118   NI        0.324784    0.638734    0.660697     0.004307
PD3119   PD        0.306592    0.667257    0.591509     0.005394
PD3120   PD        0.330134    0.639713    0.579450     0.005394
NI3121   NI        0.353487    0.668589    0.640330     0.004307
NI3122   NI        0.357993    0.640316    0.642535     0.004307
NI3123   NI        0.365469    0.683658    0.596262     0.004307
PD3124   PD        0.419277    0.635422    0.598276     0.005394
NI3125   NI        0.419247    0.665651    0.638046     0.004307
PD3126   PD        0.455858    0.635834    0.631153     0.005394
NI3127   NI        0.438155    0.678915    0.587069     0.004307
PD3128   PD        0.487362    0.624220    0.610360     0.005394
PD3129   PD        0.490585    0.669624    0.628378     0.005394
NI3130   NI        0.519657    0.642018    0.641810     0.004307
PD3131   PD        0.526643    0.666762    0.598401     0.005394
PD3132   PD        0.555455    0.628532    0.596876     0.005394
NI3133   NI        0.555504    0.657199    0.636283     0.004307
NI3134   NI        0.587338    0.625465    0.650745     0.004307
NI3135   NI        0.588784    0.662690    0.594106     0.004307
PD3136   PD        0.622319    0.630186    0.594220     0.005394
NI3137   NI        0.624313    0.662259    0.628594     0.004307
NI3138   NI        0.680293    0.637678    0.616959     0.004307
NI3139   NI        0.674366    0.676173    0.588034     0.004307
NI3140   NI        0.707125    0.650487    0.585040     0.004307
NI3141   NI        0.695378    0.661157    0.629414     0.004307
NI3142   NI        0.730485    0.627336    0.628858     0.004307
NI3143   NI        0.726659    0.662446    0.594500     0.004307
NI3144   NI        0.133898    0.726464    0.581726     0.004307
NI3145   NI        0.179243    0.680407    0.598567     0.004307
NI3146   NI        0.158481    0.723088    0.607029     0.004307
NI3147   NI        0.212639    0.694784    0.597063     0.004307
NI3148   NI        0.241465    0.750592    0.624877     0.004307
NI3149   NI        0.246643    0.693435    0.630215     0.004307
NI3150   NI        0.241372    0.732302    0.595953     0.004307
PD3151   PD        0.277158    0.702582    0.592590     0.005394
NI3152   NI        0.276088    0.731415    0.628900     0.004307
NI3153   NI        0.308666    0.694935    0.628238     0.004307
NI3154   NI        0.308488    0.742636    0.590875     0.004307
NI3155   NI        0.332138    0.706482    0.602467     0.004307
NI3156   NI        0.343960    0.731517    0.630519     0.004307
NI3157   NI        0.376943    0.697461    0.631759     0.004307
NI3158   NI        0.368894    0.740194    0.606057     0.004307
NI3159   NI        0.385664    0.723853    0.592865     0.004307
NI3160   NI        0.414082    0.726952    0.629757     0.004307
NI3161   NI        0.433491    0.673368    0.617401     0.004307
NI3162   NI        0.440734    0.761114    0.586883     0.004307
NI3163   NI        0.492064    0.698118    0.592233     0.004307
NI3164   NI        0.488138    0.729148    0.629360     0.004307
NI3165   NI        0.519444    0.696389    0.628930     0.004307
NI3166   NI        0.514373    0.744016    0.618872     0.004307
PD3167   PD        0.557819    0.703062    0.594156     0.005394
NI3168   NI        0.551707    0.721003    0.633675     0.004307
NI3169   NI        0.595027    0.700204    0.626377     0.004307
NI3170   NI        0.593645    0.734232    0.595528     0.004307
NI3171   NI        0.614878    0.738131    0.599671     0.004307
NI3172   NI        0.628582    0.733279    0.630117     0.004307
NI3173   NI        0.657948    0.697054    0.629704     0.004307
NI3174   NI        0.661368    0.717789    0.614050     0.004307
NI3175   NI        0.695746    0.711847    0.583910     0.004307
NI3176   NI        0.241837    0.764945    0.629557     0.004307
NI3177   NI        0.271113    0.764942    0.610307     0.004307
NI3178   NI        0.298911    0.784326    0.615561     0.004307
NI3179   NI        0.313076    0.800865    0.592815     0.004307
NI3180   NI        0.332140    0.786284    0.592036     0.004307
NI3181   NI        0.340173    0.800963    0.631641     0.004307
NI3182   NI        0.382847    0.763571    0.621199     0.004307
NI3183   NI        0.398754    0.818456    0.587668     0.004307
NI3184   NI        0.415211    0.777853    0.579361     0.004307
NI3185   NI        0.415669    0.797822    0.629622     0.004307
NI3186   NI        0.450785    0.759657    0.632664     0.004307
NI3187   NI        0.444348    0.806954    0.594605     0.004307
NI3188   NI        0.481786    0.761098    0.594106     0.004307
NI3189   NI        0.469727    0.809470    0.634064     0.004307
NI3190   NI        0.531200    0.785139    0.643498     0.004307
NI3191   NI        0.514647    0.827978    0.630828     0.004307
NI3192   NI        0.546764    0.773525    0.597735     0.004307
NI3193   NI        0.594174    0.769540    0.629842     0.004307
NI3194   NI        0.209080    0.106326    0.667218     0.004307
NI3195   NI        0.279157    0.078099    0.732676     0.004307
PD3196   PD        0.316707    0.112085    0.664805     0.005394
PD3197   PD        0.352001    0.078142    0.665230     0.005394
PD3198   PD        0.349857    0.110748    0.701044     0.005394
PD3199   PD        0.383564    0.079740    0.700928     0.005394
PD3200   PD        0.383624    0.112566    0.665950     0.005394
PD3201   PD        0.419219    0.080199    0.665579     0.005394
NI3202   NI        0.419516    0.101415    0.673368     0.004307
PD3203   PD        0.452180    0.079017    0.700146     0.005394
NI3204   NI        0.461748    0.105052    0.658131     0.004307
NI3205   NI        0.484817    0.079270    0.664574     0.004307
PD3206   PD        0.486789    0.112840    0.702397     0.005394
NI3207   NI        0.502316    0.086854    0.667790     0.004307
PD3208   PD        0.555582    0.114970    0.699917     0.005394
NI3209   NI        0.590047    0.087032    0.642471     0.004307
PD3210   PD        0.180211    0.178690    0.665199     0.005394
NI3211   NI        0.219627    0.128122    0.679677     0.004307
NI3212   NI        0.200370    0.204349    0.710491     0.004307
NI3213   NI        0.236604    0.129480    0.724532     0.004307
NI3214   NI        0.227952    0.173704    0.686468     0.004307
PD3215   PD        0.279604    0.146389    0.666545     0.005394
PD3216   PD        0.279855    0.180711    0.701059     0.005394
PD3217   PD        0.314835    0.144672    0.700968     0.005394
PD3218   PD        0.315981    0.180059    0.666597     0.005394
PD3219   PD        0.349951    0.147167    0.665794     0.005394
PD3220   PD        0.349247    0.178330    0.699515     0.005394
PD3221   PD        0.382935    0.146240    0.700548     0.005394
PD3222   PD        0.384328    0.180544    0.666359     0.005394
PD3223   PD        0.417232    0.148631    0.665907     0.005394
PD3224   PD        0.417732    0.180944    0.701339     0.005394
PD3225   PD        0.452876    0.148142    0.698997     0.005394
PD3226   PD        0.452031    0.182387    0.665422     0.005394
PD3227   PD        0.488006    0.146172    0.668296     0.005394
NI3228   NI        0.499907    0.177654    0.696469     0.004307
PD3229   PD        0.521685    0.147037    0.699812     0.005394
PD3230   PD        0.519707    0.181570    0.667102     0.005394
PD3231   PD        0.556510    0.147899    0.667476     0.005394
PD3232   PD        0.553732    0.182181    0.700955     0.005394
NI3233   NI        0.590162    0.164109    0.727715     0.004307
PD3234   PD        0.588717    0.183508    0.666542     0.005394
PD3235   PD        0.624586    0.148755    0.666180     0.005394
PD3236   PD        0.623995    0.183184    0.700237     0.005394
NI3237   NI        0.659199    0.180597    0.664969     0.004307
NI3238   NI        0.101182    0.254941    0.651146     0.004307
NI3239   NI        0.129261    0.210089    0.656696     0.004307
NI3240   NI        0.143641    0.249269    0.700425     0.004307
NI3241   NI        0.178237    0.213382    0.698024     0.004307
PD3242   PD        0.179297    0.248151    0.664941     0.005394
PD3243   PD        0.213587    0.213786    0.664495     0.005394
PD3244   PD        0.211907    0.248480    0.699738     0.005394
PD3245   PD        0.246058    0.214991    0.701518     0.005394
PD3246   PD        0.247296    0.248788    0.665709     0.005394
NI3247   NI        0.257854    0.202799    0.675803     0.004307
PD3248   PD        0.281435    0.247994    0.700104     0.005394
PD3249   PD        0.313889    0.214238    0.700080     0.005394
PD3250   PD        0.315681    0.248416    0.665581     0.005394
PD3251   PD        0.349951    0.214467    0.666386     0.005394
PD3252   PD        0.349128    0.248946    0.700709     0.005394
PD3253   PD        0.384931    0.215273    0.702008     0.005394
PD3254   PD        0.382640    0.247939    0.666164     0.005394
PD3255   PD        0.417620    0.215382    0.666759     0.005394
PD3256   PD        0.417498    0.248547    0.701587     0.005394
NI3257   NI        0.445798    0.214789    0.699080     0.004307
NI3258   NI        0.442881    0.253623    0.681815     0.004307
PD3259   PD        0.486566    0.215823    0.666792     0.005394
PD3260   PD        0.493148    0.252916    0.678170     0.005394
NI3261   NI        0.544068    0.193765    0.706027     0.004307
PD3262   PD        0.520780    0.249829    0.666013     0.005394
PD3263   PD        0.554560    0.217300    0.665797     0.005394
NI3264   NI        0.558593    0.259989    0.729725     0.004307
NI3265   NI        0.572474    0.201313    0.707273     0.004307
NI3266   NI        0.594436    0.222348    0.670452     0.004307
NI3267   NI        0.639237    0.203068    0.671929     0.004307
PD3268   PD        0.623762    0.251072    0.699535     0.005394
NI3269   NI        0.653045    0.205717    0.725868     0.004307
PD3270   PD        0.658224    0.250214    0.664593     0.005394
NI3271   NI        0.693078    0.217651    0.664755     0.004307
NI3272   NI        0.690843    0.249311    0.700307     0.004307
NI3273   NI        0.758987    0.280653    0.669008     0.004307
NI3274   NI        0.110279    0.283923    0.700800     0.004307
PD3275   PD        0.108315    0.316750    0.663352     0.005394
NI3276   NI        0.129275    0.285878    0.692860     0.004307
PD3277   PD        0.145101    0.319734    0.699578     0.005394
NI3278   NI        0.175125    0.271001    0.722088     0.004307
NI3279   NI        0.161265    0.333778    0.661149     0.004307
PD3280   PD        0.210887    0.282823    0.665280     0.005394
PD3281   PD        0.214171    0.316320    0.697576     0.005394
PD3282   PD        0.247796    0.282077    0.700151     0.005394
PD3283   PD        0.244875    0.319352    0.663800     0.005394
PD3284   PD        0.279879    0.284137    0.663709     0.005394
PD3285   PD        0.280651    0.316936    0.700482     0.005394
PD3286   PD        0.314734    0.283407    0.698517     0.005394
PD3287   PD        0.314187    0.319579    0.665112     0.005394
PD3288   PD        0.349723    0.284849    0.667181     0.005394
PD3289   PD        0.328431    0.328973    0.691708     0.005394
PD3290   PD        0.381838    0.283913    0.699729     0.005394
PD3291   PD        0.383862    0.316625    0.666224     0.005394
PD3292   PD        0.416830    0.284179    0.665841     0.005394
PD3293   PD        0.417714    0.320150    0.700360     0.005394
PD3294   PD        0.461927    0.268934    0.689441     0.005394
PD3295   PD        0.450035    0.320735    0.664796     0.005394
PD3296   PD        0.486095    0.285597    0.667282     0.005394
PD3297   PD        0.488534    0.320860    0.699692     0.005394
NI3298   NI        0.529914    0.295252    0.733321     0.004307
PD3299   PD        0.522573    0.321577    0.663994     0.005394
PD3300   PD        0.554093    0.283925    0.666566     0.005394
PD3301   PD        0.556079    0.320681    0.699840     0.005394
PD3302   PD        0.587639    0.284062    0.697561     0.005394
PD3303   PD        0.589639    0.320580    0.665197     0.005394
PD3304   PD        0.623962    0.284622    0.664023     0.005394
NI3305   NI        0.611936    0.348071    0.703581     0.004307
NI3306   NI        0.653482    0.251837    0.722877     0.004307
PD3307   PD        0.658318    0.317603    0.664215     0.005394
NI3308   NI        0.712888    0.288144    0.666362     0.004307
NI3309   NI        0.694942    0.340946    0.683378     0.004307
NI3310   NI        0.724804    0.283111    0.697123     0.004307
PD3311   PD        0.727284    0.318871    0.665017     0.005394
NI3312   NI        0.074379    0.351114    0.665724     0.004307
NI3313   NI        0.074476    0.385625    0.699410     0.004307
PD3314   PD        0.109798    0.352177    0.700303     0.005394
PD3315   PD        0.108177    0.386843    0.664517     0.005394
NI3316   NI        0.115935    0.349420    0.691705     0.004307
PD3317   PD        0.142086    0.387659    0.698125     0.005394
NI3318   NI        0.161266    0.344397    0.707880     0.004307
NI3319   NI        0.173672    0.378356    0.671362     0.004307
PD3320   PD        0.224625    0.364090    0.660090     0.005394
PD3321   PD        0.211120    0.387110    0.698674     0.005394
PD3322   PD        0.246498    0.351517    0.698834     0.005394
NI3323   NI        0.243905    0.366626    0.673214     0.004307
PD3324   PD        0.281554    0.352022    0.665003     0.005394
PD3325   PD        0.278588    0.385526    0.699728     0.005394
PD3326   PD        0.315125    0.350722    0.700752     0.005394
PD3327   PD        0.313673    0.385333    0.664055     0.005394
PD3328   PD        0.347324    0.337539    0.691421     0.005394
PD3329   PD        0.348432    0.384981    0.699521     0.005394
PD3330   PD        0.385461    0.357284    0.708001     0.005394
PD3331   PD        0.382240    0.386317    0.666308     0.005394
PD3332   PD        0.428766    0.345375    0.667430     0.005394
PD3333   PD        0.417928    0.387927    0.699588     0.005394
PD3334   PD        0.451211    0.352601    0.698174     0.005394
PD3335   PD        0.452414    0.386690    0.663567     0.005394
PD3336   PD        0.486146    0.352363    0.669514     0.005394
PD3337   PD        0.486000    0.390703    0.698660     0.005394
PD3338   PD        0.522403    0.356615    0.699171     0.005394
PD3339   PD        0.521540    0.386781    0.663047     0.005394
PD3340   PD        0.557640    0.354566    0.665105     0.005394
PD3341   PD        0.557648    0.387737    0.701297     0.005394
PD3342   PD        0.591806    0.352367    0.701793     0.005394
PD3343   PD        0.589890    0.387896    0.664285     0.005394
NI3344   NI        0.641318    0.373264    0.673807     0.004307
NI3345   NI        0.626340    0.371781    0.723235     0.004307
PD3346   PD        0.660439    0.351988    0.698666     0.005394
PD3347   PD        0.660899    0.387513    0.664864     0.005394
PD3348   PD        0.692734    0.352722    0.662308     0.005394
PD3349   PD        0.692603    0.386947    0.697162     0.005394
NI3350   NI        0.719541    0.345678    0.724842     0.004307
PD3351   PD        0.727262    0.389421    0.663573     0.005394
NI3352   NI        0.761550    0.354479    0.662647     0.004307
NI3353   NI        0.778738    0.402514    0.707768     0.004307
PD3354   PD        0.073139    0.421373    0.665925     0.005394
NI3355   NI        0.091585    0.470050    0.712177     0.004307
PD3356   PD        0.108970    0.419941    0.699128     0.005394
NI3357   NI        0.104578    0.457051    0.666609     0.004307
PD3358   PD        0.143649    0.420361    0.666491     0.005394
PD3359   PD        0.141089    0.453649    0.698818     0.005394
PD3360   PD        0.176663    0.420191    0.699658     0.005394
PD3361   PD        0.176481    0.455748    0.664479     0.005394
PD3362   PD        0.209847    0.421745    0.666274     0.005394
NI3363   NI        0.212080    0.488986    0.727006     0.004307
PD3364   PD        0.244640    0.421242    0.698093     0.005394
NI3365   NI        0.237001    0.472400    0.680177     0.004307
PD3366   PD        0.279727    0.420101    0.665546     0.005394
PD3367   PD        0.276957    0.454353    0.696812     0.005394
PD3368   PD        0.319379    0.433830    0.697272     0.005394
PD3369   PD        0.312787    0.453939    0.665071     0.005394
PD3370   PD        0.346410    0.421078    0.668063     0.005394
PD3371   PD        0.349321    0.453770    0.697045     0.005394
PD3372   PD        0.385546    0.423864    0.696077     0.005394
PD3373   PD        0.382021    0.455341    0.666227     0.005394
PD3374   PD        0.436366    0.427024    0.651682     0.005394
PD3375   PD        0.424429    0.459434    0.688605     0.005394
PD3376   PD        0.451836    0.422445    0.699142     0.005394
PD3377   PD        0.451754    0.456824    0.666131     0.005394
PD3378   PD        0.488239    0.423580    0.667489     0.005394
PD3379   PD        0.479403    0.447566    0.701649     0.005394
PD3380   PD        0.524569    0.424517    0.697511     0.005394
PD3381   PD        0.513337    0.453253    0.668293     0.005394
PD3382   PD        0.554165    0.423158    0.666426     0.005394
PD3383   PD        0.550209    0.455887    0.697571     0.005394
PD3384   PD        0.590582    0.423935    0.698336     0.005394
PD3385   PD        0.590755    0.455651    0.663057     0.005394
PD3386   PD        0.625684    0.420588    0.665399     0.005394
NI3387   NI        0.617817    0.473521    0.698643     0.004307
PD3388   PD        0.658703    0.421887    0.697837     0.005394
PD3389   PD        0.661329    0.455867    0.664461     0.005394
PD3390   PD        0.693984    0.422660    0.664858     0.005394
NI3391   NI        0.693686    0.448147    0.715527     0.004307
NI3392   NI        0.721222    0.408539    0.722373     0.004307
PD3393   PD        0.726236    0.457212    0.662994     0.005394
NI3394   NI        0.776836    0.397045    0.661838     0.004307
NI3395   NI        0.785992    0.443568    0.685584     0.004307
NI3396   NI        0.073018    0.487831    0.666760     0.004307
NI3397   NI        0.104560    0.488537    0.701997     0.004307
NI3398   NI        0.109505    0.522913    0.664654     0.004307
PD3399   PD        0.143079    0.489437    0.664542     0.005394
PD3400   PD        0.140940    0.524791    0.700001     0.005394
NI3401   NI        0.183376    0.480622    0.708433     0.004307
PD3402   PD        0.173627    0.523563    0.667182     0.005394
NI3403   NI        0.197000    0.500752    0.685304     0.004307
PD3404   PD        0.210977    0.522458    0.699265     0.005394
PD3405   PD        0.242150    0.490324    0.697978     0.005394
NI3406   NI        0.225755    0.538790    0.668017     0.004307
PD3407   PD        0.279258    0.490506    0.664805     0.005394
PD3408   PD        0.278832    0.523618    0.696957     0.005394
PD3409   PD        0.322290    0.491042    0.688170     0.005394
PD3410   PD        0.310884    0.531697    0.673292     0.005394
PD3411   PD        0.343454    0.496141    0.674714     0.005394
PD3412   PD        0.346804    0.529338    0.706421     0.005394
PD3413   PD        0.379221    0.495525    0.708115     0.005394
PD3414   PD        0.396381    0.534527    0.670608     0.005394
PD3415   PD        0.424322    0.496391    0.659298     0.005394
PD3416   PD        0.417855    0.524081    0.699713     0.005394
PD3417   PD        0.456767    0.493313    0.695387     0.005394
PD3418   PD        0.456960    0.530791    0.660170     0.005394
PD3419   PD        0.463250    0.483098    0.673742     0.005394
PD3420   PD        0.486206    0.532562    0.694635     0.005394
PD3421   PD        0.517809    0.491782    0.696646     0.005394
PD3422   PD        0.532357    0.541376    0.679151     0.005394
PD3423   PD        0.552530    0.491536    0.663286     0.005394
PD3424   PD        0.552036    0.514979    0.703316     0.005394
PD3425   PD        0.595611    0.485569    0.702295     0.005394
PD3426   PD        0.597216    0.524550    0.672809     0.005394
NI3427   NI        0.632303    0.488768    0.673534     0.004307
NI3428   NI        0.623507    0.521657    0.702339     0.004307
NI3429   NI        0.658785    0.475124    0.727943     0.004307
NI3430   NI        0.676910    0.536635    0.653565     0.004307
PD3431   PD        0.692934    0.491169    0.665001     0.005394
PD3432   PD        0.689801    0.525337    0.698968     0.005394
NI3433   NI        0.720757    0.493324    0.714289     0.004307
NI3434   NI        0.744593    0.549614    0.655014     0.004307
NI3435   NI        0.763239    0.491330    0.663358     0.004307
NI3436   NI        0.112524    0.563267    0.699324     0.004307
NI3437   NI        0.075660    0.593647    0.697376     0.004307
NI3438   NI        0.140019    0.557216    0.664845     0.004307
NI3439   NI        0.144015    0.591116    0.699752     0.004307
NI3440   NI        0.176827    0.560594    0.698349     0.004307
NI3441   NI        0.176274    0.591368    0.662229     0.004307
NI3442   NI        0.215309    0.585268    0.653516     0.004307
NI3443   NI        0.203751    0.613418    0.700511     0.004307
PD3444   PD        0.246202    0.557533    0.700958     0.005394
NI3445   NI        0.236917    0.615932    0.665818     0.004307
PD3446   PD        0.264794    0.564526    0.669723     0.005394
NI3447   NI        0.273125    0.596185    0.689300     0.004307
PD3448   PD        0.313846    0.565945    0.707285     0.005394
PD3449   PD        0.314303    0.594026    0.669787     0.005394
PD3450   PD        0.345711    0.561711    0.672618     0.005394
NI3451   NI        0.348233    0.596116    0.705701     0.004307
PD3452   PD        0.380928    0.562767    0.705075     0.005394
PD3453   PD        0.409836    0.580966    0.661570     0.005394
PD3454   PD        0.417678    0.558784    0.665240     0.005394
NI3455   NI        0.436597    0.606182    0.717367     0.004307
PD3456   PD        0.449983    0.564887    0.698120     0.005394
PD3457   PD        0.449221    0.593879    0.666441     0.005394
PD3458   PD        0.488349    0.566571    0.665293     0.005394
PD3459   PD        0.481289    0.599701    0.700318     0.005394
NI3460   NI        0.514505    0.569240    0.706463     0.004307
NI3461   NI        0.528281    0.597787    0.655542     0.004307
PD3462   PD        0.571542    0.563338    0.662195     0.005394
NI3463   NI        0.543152    0.583499    0.696289     0.004307
NI3464   NI        0.608772    0.567830    0.692045     0.004307
NI3465   NI        0.587120    0.594517    0.660604     0.004307
PD3466   PD        0.618265    0.559814    0.674318     0.005394
NI3467   NI        0.624512    0.594842    0.696477     0.004307
NI3468   NI        0.656845    0.558937    0.697505     0.004307
PD3469   PD        0.659211    0.594080    0.664481     0.005394
NI3470   NI        0.698893    0.564719    0.669969     0.004307
NI3471   NI        0.692507    0.593417    0.698124     0.004307
NI3472   NI        0.727401    0.559938    0.698012     0.004307
NI3473   NI        0.738471    0.582141    0.684249     0.004307
NI3474   NI        0.120822    0.627342    0.678027     0.004307
NI3475   NI        0.189008    0.654300    0.714804     0.004307
NI3476   NI        0.163844    0.680297    0.681218     0.004307
NI3477   NI        0.197239    0.630824    0.655671     0.004307
NI3478   NI        0.206770    0.661330    0.696020     0.004307
NI3479   NI        0.245577    0.635778    0.709582     0.004307
NI3480   NI        0.244311    0.662345    0.671623     0.004307
NI3481   NI        0.280461    0.630651    0.677151     0.004307
NI3482   NI        0.283875    0.662736    0.695400     0.004307
NI3483   NI        0.311734    0.626834    0.702350     0.004307
NI3484   NI        0.314372    0.661922    0.660184     0.004307
NI3485   NI        0.348145    0.632217    0.673877     0.004307
NI3486   NI        0.337519    0.683491    0.705139     0.004307
NI3487   NI        0.380161    0.649746    0.693994     0.004307
PD3488   PD        0.379794    0.663555    0.663911     0.005394
PD3489   PD        0.415694    0.628834    0.665553     0.005394
NI3490   NI        0.414834    0.665782    0.697403     0.004307
NI3491   NI        0.443987    0.629844    0.706072     0.004307
NI3492   NI        0.472323    0.660425    0.663690     0.004307
NI3493   NI        0.493020    0.663522    0.674780     0.004307
NI3494   NI        0.477931    0.660766    0.710652     0.004307
NI3495   NI        0.509108    0.644908    0.690089     0.004307
NI3496   NI        0.518015    0.660844    0.680838     0.004307
NI3497   NI        0.549843    0.638292    0.680298     0.004307
NI3498   NI        0.571140    0.658069    0.714348     0.004307
NI3499   NI        0.577908    0.657048    0.690935     0.004307
NI3500   NI        0.596091    0.680386    0.685208     0.004307
NI3501   NI        0.628981    0.631554    0.663582     0.004307
NI3502   NI        0.622130    0.662441    0.695362     0.004307
NI3503   NI        0.658925    0.629920    0.697888     0.004307
NI3504   NI        0.643220    0.685646    0.661873     0.004307
NI3505   NI        0.717547    0.641064    0.667123     0.004307
NI3506   NI        0.211708    0.695329    0.663483     0.004307
NI3507   NI        0.233045    0.719027    0.701553     0.004307
NI3508   NI        0.242040    0.729938    0.659534     0.004307
NI3509   NI        0.279344    0.698542    0.662610     0.004307
NI3510   NI        0.286181    0.729969    0.721724     0.004307
NI3511   NI        0.309128    0.694216    0.696693     0.004307
NI3512   NI        0.335691    0.742394    0.677082     0.004307
NI3513   NI        0.338812    0.722558    0.679820     0.004307
NI3514   NI        0.352838    0.718530    0.698395     0.004307
NI3515   NI        0.375972    0.696832    0.699988     0.004307
NI3516   NI        0.368992    0.758157    0.689755     0.004307
NI3517   NI        0.417187    0.695835    0.668405     0.004307
NI3518   NI        0.432362    0.724494    0.697069     0.004307
NI3519   NI        0.446327    0.701067    0.694423     0.004307
NI3520   NI        0.443433    0.739969    0.665505     0.004307
NI3521   NI        0.485165    0.695128    0.678784     0.004307
NI3522   NI        0.482575    0.718250    0.719051     0.004307
NI3523   NI        0.518353    0.720179    0.665974     0.004307
NI3524   NI        0.519009    0.729546    0.664333     0.004307
NI3525   NI        0.560513    0.701678    0.661100     0.004307
NI3526   NI        0.552572    0.729443    0.698410     0.004307
NI3527   NI        0.591527    0.698764    0.696755     0.004307
NI3528   NI        0.595084    0.733406    0.663055     0.004307
NI3529   NI        0.625614    0.698100    0.662101     0.004307
NI3530   NI        0.322891    0.786814    0.674273     0.004307
NI3531   NI        0.392181    0.750576    0.699645     0.004307
NI3532   NI        0.426249    0.773033    0.665234     0.004307
NI3533   NI        0.457357    0.767617    0.702425     0.004307
NI3534   NI        0.498681    0.765401    0.674666     0.004307
NI3535   NI        0.361222    0.099667    0.745354     0.004307
PD3536   PD        0.452260    0.114439    0.734104     0.005394
NI3537   NI        0.227870    0.192241    0.747567     0.004307
PD3538   PD        0.280167    0.147334    0.736180     0.005394
NI3539   NI        0.302297    0.200343    0.747630     0.004307
PD3540   PD        0.314115    0.180419    0.735028     0.005394
NI3541   NI        0.327373    0.135750    0.745446     0.004307
PD3542   PD        0.348142    0.182492    0.769492     0.005394
PD3543   PD        0.383304    0.147248    0.768230     0.005394
PD3544   PD        0.382257    0.180965    0.734255     0.005394
PD3545   PD        0.418051    0.145777    0.736229     0.005394
PD3546   PD        0.420012    0.179453    0.769242     0.005394
PD3547   PD        0.453003    0.146350    0.769218     0.005394
PD3548   PD        0.451842    0.179020    0.735617     0.005394
PD3549   PD        0.486506    0.145556    0.734909     0.005394
NI3550   NI        0.511697    0.169151    0.778194     0.004307
PD3551   PD        0.522274    0.182171    0.734786     0.005394
NI3552   NI        0.530873    0.137477    0.745890     0.004307
NI3553   NI        0.555227    0.182727    0.768406     0.004307
PD3554   PD        0.588863    0.182115    0.733371     0.005394
NI3555   NI        0.152871    0.246116    0.757639     0.004307
NI3556   NI        0.209863    0.188988    0.754518     0.004307
NI3557   NI        0.212028    0.285459    0.800106     0.004307
NI3558   NI        0.233120    0.205893    0.791118     0.004307
PD3559   PD        0.246669    0.248036    0.735185     0.005394
PD3560   PD        0.282127    0.217217    0.732792     0.005394
PD3561   PD        0.280903    0.246996    0.768751     0.005394
PD3562   PD        0.314223    0.215238    0.770059     0.005394
PD3563   PD        0.315345    0.248205    0.734508     0.005394
PD3564   PD        0.349064    0.216338    0.732235     0.005394
PD3565   PD        0.349382    0.246971    0.769931     0.005394
PD3566   PD        0.381954    0.212679    0.769518     0.005394
PD3567   PD        0.382087    0.245912    0.734154     0.005394
PD3568   PD        0.417041    0.216005    0.736830     0.005394
PD3569   PD        0.419492    0.249323    0.768286     0.005394
PD3570   PD        0.453552    0.214011    0.769529     0.005394
NI3571   NI        0.436580    0.262156    0.728056     0.004307
PD3572   PD        0.487691    0.216475    0.735017     0.005394
PD3573   PD        0.485766    0.248431    0.767812     0.005394
PD3574   PD        0.521314    0.215335    0.768912     0.005394
PD3575   PD        0.520681    0.250950    0.731423     0.005394
PD3576   PD        0.554259    0.216553    0.734412     0.005394
NI3577   NI        0.548614    0.231962    0.767637     0.004307
PD3578   PD        0.588889    0.217112    0.767128     0.005394
NI3579   NI        0.595005    0.267223    0.714454     0.004307
NI3580   NI        0.633986    0.224079    0.754394     0.004307
NI3581   NI        0.623675    0.217652    0.801310     0.004307
PD3582   PD        0.657345    0.252469    0.733666     0.005394
NI3583   NI        0.143983    0.283330    0.735043     0.004307
PD3584   PD        0.178040    0.284073    0.767445     0.005394
PD3585   PD        0.178259    0.318343    0.732554     0.005394
NI3586   NI        0.210889    0.274094    0.754351     0.004307
PD3587   PD        0.213560    0.320091    0.767313     0.005394
NI3588   NI        0.244955    0.272785    0.770459     0.004307
PD3589   PD        0.245219    0.317291    0.732475     0.005394
PD3590   PD        0.279727    0.281447    0.735683     0.005394
PD3591   PD        0.281597    0.316122    0.767963     0.005394
PD3592   PD        0.315228    0.284447    0.767999     0.005394
PD3593   PD        0.314287    0.316573    0.734924     0.005394
PD3594   PD        0.349853    0.281954    0.734195     0.005394
PD3595   PD        0.346582    0.315934    0.771510     0.005394
PD3596   PD        0.382270    0.281933    0.769947     0.005394
PD3597   PD        0.380441    0.323640    0.733320     0.005394
PD3598   PD        0.418256    0.283500    0.732457     0.005394
PD3599   PD        0.416384    0.317919    0.768300     0.005394
PD3600   PD        0.451303    0.283224    0.767721     0.005394
PD3601   PD        0.451492    0.318479    0.734699     0.005394
NI3602   NI        0.500995    0.274067    0.743122     0.004307
PD3603   PD        0.487262    0.319180    0.768398     0.005394
NI3604   NI        0.537454    0.274156    0.773372     0.004307
NI3605   NI        0.521430    0.300962    0.742679     0.004307
PD3606   PD        0.553899    0.286717    0.732802     0.005394
PD3607   PD        0.554998    0.318973    0.768439     0.005394
PD3608   PD        0.588734    0.285569    0.768459     0.005394
PD3609   PD        0.588961    0.318743    0.734403     0.005394
PD3610   PD        0.622560    0.285353    0.731673     0.005394
NI3611   NI        0.630563    0.294886    0.783446     0.004307
PD3612   PD        0.623519    0.319564    0.766644     0.005394
NI3613   NI        0.655954    0.295972    0.742954     0.004307
NI3614   NI        0.692384    0.283401    0.732692     0.004307
PD3615   PD        0.107848    0.385151    0.732718     0.005394
NI3616   NI        0.125125    0.340623    0.736699     0.004307
NI3617   NI        0.149939    0.379893    0.780335     0.004307
PD3618   PD        0.177834    0.353446    0.766945     0.005394
NI3619   NI        0.155896    0.377409    0.731952     0.004307
PD3620   PD        0.213793    0.352672    0.733555     0.005394
NI3621   NI        0.233729    0.397841    0.776444     0.004307
PD3622   PD        0.245452    0.352995    0.768638     0.005394
PD3623   PD        0.245029    0.385162    0.731130     0.005394
PD3624   PD        0.280771    0.352547    0.733642     0.005394
NI3625   NI        0.272774    0.375158    0.776235     0.004307
PD3626   PD        0.313704    0.351579    0.768136     0.005394
PD3627   PD        0.315292    0.385358    0.732038     0.005394
PD3628   PD        0.349208    0.351648    0.734473     0.005394
PD3629   PD        0.350466    0.389045    0.766338     0.005394
PD3630   PD        0.384412    0.350818    0.766838     0.005394
PD3631   PD        0.384610    0.387939    0.734953     0.005394
PD3632   PD        0.418612    0.353966    0.736851     0.005394
PD3633   PD        0.414734    0.385650    0.771140     0.005394
NI3634   NI        0.469489    0.338391    0.772887     0.004307
PD3635   PD        0.453160    0.389084    0.731717     0.005394
NI3636   NI        0.496983    0.357209    0.735655     0.004307
PD3637   PD        0.487076    0.392625    0.765687     0.005394
PD3638   PD        0.520002    0.355200    0.766939     0.005394
PD3639   PD        0.520691    0.390114    0.733406     0.005394
PD3640   PD        0.554814    0.353059    0.733890     0.005394
PD3641   PD        0.554426    0.386958    0.768599     0.005394
NI3642   NI        0.612425    0.347458    0.757476     0.004307
PD3643   PD        0.590302    0.386579    0.735764     0.005394
NI3644   NI        0.641143    0.342279    0.746476     0.004307
PD3645   PD        0.625069    0.386004    0.767723     0.005394
NI3646   NI        0.657381    0.350234    0.771931     0.004307
NI3647   NI        0.666863    0.388617    0.747241     0.004307
PD3648   PD        0.693065    0.352850    0.732344     0.005394
NI3649   NI        0.706441    0.355043    0.775963     0.004307
NI3650   NI        0.726105    0.388913    0.732765     0.004307
NI3651   NI        0.108792    0.454028    0.734263     0.004307
PD3652   PD        0.142788    0.421360    0.732784     0.005394
NI3653   NI        0.142678    0.456406    0.768088     0.004307
NI3654   NI        0.174521    0.421638    0.766898     0.004307
PD3655   PD        0.175077    0.455662    0.733905     0.005394
NI3656   NI        0.201913    0.400927    0.738534     0.004307
PD3657   PD        0.210409    0.453110    0.767085     0.005394
PD3658   PD        0.248300    0.419904    0.766779     0.005394
PD3659   PD        0.246335    0.455607    0.733536     0.005394
PD3660   PD        0.280338    0.421258    0.732387     0.005394
NI3661   NI        0.292606    0.439643    0.778182     0.004307
PD3662   PD        0.314563    0.420370    0.766962     0.005394
PD3663   PD        0.314620    0.454937    0.734376     0.005394
PD3664   PD        0.348716    0.421316    0.732968     0.005394
NI3665   NI        0.365381    0.488951    0.777976     0.004307
NI3666   NI        0.402365    0.440020    0.776924     0.004307
PD3667   PD        0.382647    0.454653    0.733879     0.005394
PD3668   PD        0.417926    0.422973    0.732449     0.005394
PD3669   PD        0.417919    0.454430    0.768816     0.005394
PD3670   PD        0.449690    0.420218    0.769622     0.005394
PD3671   PD        0.449736    0.455772    0.733711     0.005394
PD3672   PD        0.485889    0.425955    0.731387     0.005394
NI3673   NI        0.480955    0.446332    0.787085     0.004307
NI3674   NI        0.486469    0.446025    0.772236     0.004307
PD3675   PD        0.519273    0.459945    0.730761     0.005394
PD3676   PD        0.556916    0.421828    0.732614     0.005394
PD3677   PD        0.555849    0.455277    0.767164     0.005394
NI3678   NI        0.584459    0.424346    0.785486     0.004307
PD3679   PD        0.594406    0.451947    0.737535     0.005394
PD3680   PD        0.627796    0.417428    0.736229     0.005394
NI3681   NI        0.623871    0.456830    0.766808     0.004307
NI3682   NI        0.658594    0.420229    0.769846     0.004307
NI3683   NI        0.658920    0.447324    0.756434     0.004307
PD3684   PD        0.691912    0.423008    0.732920     0.005394
NI3685   NI        0.688388    0.456199    0.761666     0.004307
NI3686   NI        0.723103    0.455755    0.733884     0.004307
NI3687   NI        0.142865    0.489260    0.732253     0.004307
NI3688   NI        0.185789    0.503715    0.750829     0.004307
PD3689   PD        0.175842    0.523460    0.732917     0.005394
PD3690   PD        0.206392    0.487803    0.734360     0.005394
NI3691   NI        0.211488    0.523775    0.768803     0.004307
PD3692   PD        0.243333    0.487770    0.769316     0.005394
NI3693   NI        0.251090    0.520523    0.736797     0.004307
NI3694   NI        0.273953    0.480674    0.750634     0.004307
NI3695   NI        0.280470    0.524079    0.762441     0.004307
NI3696   NI        0.327016    0.499221    0.789565     0.004307
NI3697   NI        0.315486    0.531571    0.759841     0.004307
NI3698   NI        0.351877    0.502699    0.747390     0.004307
NI3699   NI        0.345695    0.523108    0.762993     0.004307
NI3700   NI        0.365618    0.499030    0.783766     0.004307
PD3701   PD        0.384656    0.524545    0.732564     0.005394
PD3702   PD        0.415291    0.489934    0.735105     0.005394
NI3703   NI        0.408339    0.519048    0.780931     0.004307
NI3704   NI        0.454561    0.505189    0.778867     0.004307
PD3705   PD        0.432633    0.524212    0.741326     0.005394
NI3706   NI        0.489958    0.509788    0.761617     0.004307
NI3707   NI        0.484470    0.528036    0.765720     0.004307
NI3708   NI        0.541383    0.502002    0.784895     0.004307
NI3709   NI        0.510378    0.530683    0.736456     0.004307
NI3710   NI        0.566320    0.488610    0.740609     0.004307
NI3711   NI        0.561468    0.520944    0.774645     0.004307
NI3712   NI        0.587604    0.488968    0.765283     0.004307
NI3713   NI        0.587115    0.527772    0.731716     0.004307
NI3714   NI        0.618864    0.491647    0.731336     0.004307
NI3715   NI        0.644850    0.535383    0.775597     0.004307
NI3716   NI        0.656598    0.491754    0.766941     0.004307
NI3717   NI        0.656558    0.526883    0.732690     0.004307
NI3718   NI        0.687664    0.492823    0.731443     0.004307
NI3719   NI        0.143158    0.557939    0.734975     0.004307
NI3720   NI        0.177872    0.558170    0.767935     0.004307
NI3721   NI        0.168019    0.615249    0.732674     0.004307
PD3722   PD        0.210447    0.558076    0.732459     0.005394
NI3723   NI        0.211607    0.591857    0.768451     0.004307
NI3724   NI        0.244574    0.556577    0.771849     0.004307
NI3725   NI        0.244844    0.592664    0.729035     0.004307
PD3726   PD        0.277906    0.557126    0.736470     0.005394
NI3727   NI        0.278711    0.591060    0.769311     0.004307
NI3728   NI        0.318250    0.566633    0.777921     0.004307
NI3729   NI        0.314265    0.599810    0.741208     0.004307
NI3730   NI        0.347104    0.564388    0.741037     0.004307
NI3731   NI        0.353514    0.606881    0.766021     0.004307
NI3732   NI        0.397398    0.565467    0.777591     0.004307
PD3733   PD        0.383465    0.593718    0.741027     0.005394
PD3734   PD        0.418437    0.558252    0.735475     0.005394
NI3735   NI        0.425657    0.596093    0.764355     0.004307
PD3736   PD        0.443151    0.552089    0.780746     0.005394
PD3737   PD        0.453673    0.595497    0.735439     0.005394
PD3738   PD        0.487715    0.562180    0.732282     0.005394
NI3739   NI        0.483480    0.606971    0.772240     0.004307
NI3740   NI        0.550971    0.575820    0.781313     0.004307
NI3741   NI        0.520020    0.596619    0.732482     0.004307
NI3742   NI        0.568142    0.565002    0.754167     0.004307
NI3743   NI        0.566984    0.613345    0.756872     0.004307
NI3744   NI        0.583876    0.567111    0.757152     0.004307
NI3745   NI        0.581858    0.595719    0.721368     0.004307
NI3746   NI        0.647956    0.545654    0.732878     0.004307
NI3747   NI        0.641952    0.616295    0.789950     0.004307
NI3748   NI        0.676920    0.573225    0.757738     0.004307
NI3749   NI        0.666328    0.590127    0.732636     0.004307
NI3750   NI        0.694490    0.559377    0.732933     0.004307
NI3751   NI        0.201475    0.660904    0.758453     0.004307
NI3752   NI        0.243588    0.623589    0.764174     0.004307
NI3753   NI        0.248100    0.665367    0.748048     0.004307
NI3754   NI        0.274904    0.626252    0.741260     0.004307
NI3755   NI        0.282890    0.654493    0.779116     0.004307
NI3756   NI        0.323643    0.644218    0.777000     0.004307
NI3757   NI        0.316865    0.656432    0.738981     0.004307
NI3758   NI        0.351004    0.631166    0.738522     0.004307
NI3759   NI        0.347405    0.658577    0.767479     0.004307
NI3760   NI        0.387498    0.630798    0.770072     0.004307
NI3761   NI        0.380998    0.659849    0.732400     0.004307
NI3762   NI        0.436134    0.659178    0.736524     0.004307
NI3763   NI        0.416139    0.666067    0.762245     0.004307
NI3764   NI        0.452036    0.626871    0.768774     0.004307
NI3765   NI        0.441511    0.672599    0.737098     0.004307
NI3766   NI        0.483808    0.631924    0.733353     0.004307
NI3767   NI        0.479490    0.654532    0.767330     0.004307
NI3768   NI        0.523256    0.633459    0.760647     0.004307
NI3769   NI        0.509693    0.673384    0.739549     0.004307
NI3770   NI        0.549896    0.632035    0.719582     0.004307
NI3771   NI        0.558491    0.651056    0.786909     0.004307
NI3772   NI        0.604363    0.639703    0.771844     0.004307
NI3773   NI        0.588332    0.661552    0.728435     0.004307
NI3774   NI        0.617909    0.624990    0.727765     0.004307
NI3775   NI        0.273390    0.720628    0.726955     0.004307
NI3776   NI        0.362349    0.701219    0.741071     0.004307
NI3777   NI        0.390674    0.678501    0.761841     0.004307
NI3778   NI        0.386307    0.735773    0.727422     0.004307
NI3779   NI        0.404073    0.691885    0.718296     0.004307
NI3780   NI        0.451019    0.719333    0.777712     0.004307
NI3781   NI        0.459446    0.750626    0.747158     0.004307
NI3782   NI        0.479513    0.713631    0.739070     0.004307
NI3783   NI        0.554799    0.691756    0.727671     0.004307
PD3784   PD        0.384724    0.181394    0.802676     0.005394
NI3785   NI        0.452976    0.176833    0.844696     0.004307
NI3786   NI        0.245331    0.249296    0.804072     0.004307
PD3787   PD        0.314471    0.248795    0.803190     0.005394
PD3788   PD        0.349680    0.216277    0.803706     0.005394
NI3789   NI        0.348570    0.249277    0.837016     0.004307
PD3790   PD        0.382272    0.248394    0.803430     0.005394
PD3791   PD        0.417059    0.215808    0.803491     0.005394
NI3792   NI        0.418169    0.253115    0.837839     0.004307
PD3793   PD        0.453689    0.248221    0.802986     0.005394
PD3794   PD        0.488886    0.215464    0.802069     0.005394
NI3795   NI        0.487267    0.251796    0.834984     0.004307
PD3796   PD        0.521184    0.249383    0.803146     0.005394
NI3797   NI        0.589939    0.252138    0.802184     0.004307
PD3798   PD        0.246143    0.318969    0.800944     0.005394
PD3799   PD        0.280157    0.282911    0.802233     0.005394
NI3800   NI        0.280789    0.318999    0.836033     0.004307
NI3801   NI        0.312941    0.285011    0.836754     0.004307
PD3802   PD        0.316355    0.319522    0.801290     0.005394
NI3803   NI        0.358792    0.294953    0.826391     0.004307
PD3804   PD        0.348636    0.320472    0.835567     0.005394
PD3805   PD        0.383425    0.285471    0.836160     0.005394
PD3806   PD        0.383288    0.316717    0.802477     0.005394
PD3807   PD        0.417333    0.282009    0.804125     0.005394
NI3808   NI        0.440376    0.308654    0.848412     0.004307
PD3809   PD        0.452115    0.285682    0.835148     0.005394
NI3810   NI        0.473459    0.309564    0.813744     0.004307
NI3811   NI        0.480659    0.261274    0.832942     0.004307
PD3812   PD        0.485600    0.319815    0.835251     0.005394
NI3813   NI        0.531073    0.293930    0.863894     0.004307
PD3814   PD        0.520675    0.317796    0.801494     0.005394
PD3815   PD        0.554294    0.283682    0.801299     0.005394
NI3816   NI        0.588954    0.319400    0.870339     0.004307
NI3817   NI        0.588102    0.319349    0.801099     0.004307
NI3818   NI        0.178245    0.386187    0.801387     0.004307
PD3819   PD        0.213294    0.353165    0.801575     0.005394
NI3820   NI        0.235774    0.342734    0.839850     0.004307
PD3821   PD        0.245899    0.386188    0.800278     0.005394
NI3822   NI        0.282043    0.333785    0.827868     0.004307
NI3823   NI        0.304818    0.388348    0.857310     0.004307
NI3824   NI        0.336279    0.352920    0.870154     0.004307
NI3825   NI        0.290978    0.400168    0.812481     0.004307
PD3826   PD        0.349733    0.353659    0.800083     0.005394
NI3827   NI        0.345144    0.396991    0.868924     0.004307
PD3828   PD        0.384037    0.351945    0.835159     0.005394
PD3829   PD        0.383468    0.385882    0.800060     0.005394
PD3830   PD        0.416622    0.351773    0.802025     0.005394
NI3831   NI        0.426503    0.374456    0.846337     0.004307
NI3832   NI        0.450828    0.354550    0.834943     0.004307
NI3833   NI        0.486115    0.358703    0.797330     0.004307
NI3834   NI        0.492171    0.368756    0.801067     0.004307
NI3835   NI        0.487051    0.388490    0.808493     0.004307
PD3836   PD        0.520295    0.352465    0.835419     0.005394
NI3837   NI        0.534599    0.379628    0.803026     0.004307
PD3838   PD        0.554463    0.353097    0.800265     0.005394
NI3839   NI        0.554284    0.385808    0.835856     0.004307
NI3840   NI        0.588226    0.351203    0.836338     0.004307
PD3841   PD        0.590679    0.388675    0.801866     0.005394
NI3842   NI        0.624164    0.351725    0.802275     0.004307
NI3843   NI        0.659283    0.395566    0.797903     0.004307
NI3844   NI        0.175673    0.454375    0.800744     0.004307
PD3845   PD        0.212218    0.422233    0.800521     0.005394
NI3846   NI        0.212535    0.421239    0.869823     0.004307
NI3847   NI        0.246177    0.458493    0.800125     0.004307
NI3848   NI        0.278208    0.420111    0.801264     0.004307
NI3849   NI        0.286397    0.451158    0.824233     0.004307
NI3850   NI        0.315194    0.435437    0.858833     0.004307
NI3851   NI        0.314064    0.455307    0.800713     0.004307
PD3852   PD        0.347412    0.420226    0.800975     0.005394
NI3853   NI        0.349810    0.454965    0.835604     0.004307
NI3854   NI        0.401962    0.413962    0.855410     0.004307
NI3855   NI        0.383789    0.462651    0.794550     0.004307
NI3856   NI        0.424924    0.448545    0.815898     0.004307
NI3857   NI        0.419769    0.455443    0.824833     0.004307
NI3858   NI        0.443989    0.436358    0.864389     0.004307
NI3859   NI        0.457180    0.444499    0.810088     0.004307
NI3860   NI        0.483236    0.415848    0.802939     0.004307
NI3861   NI        0.488460    0.453727    0.832689     0.004307
NI3862   NI        0.519474    0.421027    0.834582     0.004307
NI3863   NI        0.532363    0.475036    0.825705     0.004307
PD3864   PD        0.556463    0.421114    0.800359     0.005394
NI3865   NI        0.555430    0.454482    0.832337     0.004307
NI3866   NI        0.589171    0.420037    0.834885     0.004307
NI3867   NI        0.593991    0.451598    0.805827     0.004307
NI3868   NI        0.614859    0.447456    0.785714     0.004307
NI3869   NI        0.659632    0.456648    0.800550     0.004307
NI3870   NI        0.211554    0.486588    0.801621     0.004307
NI3871   NI        0.241243    0.483477    0.834562     0.004307
NI3872   NI        0.243216    0.521103    0.804154     0.004307
NI3873   NI        0.277717    0.496903    0.826275     0.004307
NI3874   NI        0.280858    0.522466    0.835916     0.004307
NI3875   NI        0.321211    0.479472    0.817800     0.004307
NI3876   NI        0.310031    0.528111    0.797975     0.004307
NI3877   NI        0.342414    0.480765    0.817334     0.004307
NI3878   NI        0.345749    0.545263    0.821140     0.004307
NI3879   NI        0.414806    0.457171    0.832675     0.004307
NI3880   NI        0.370658    0.539340    0.797363     0.004307
NI3881   NI        0.414309    0.497097    0.777674     0.004307
NI3882   NI        0.417903    0.522517    0.834640     0.004307
NI3883   NI        0.452077    0.478256    0.841693     0.004307
NI3884   NI        0.473561    0.534200    0.813073     0.004307
NI3885   NI        0.485674    0.487000    0.801302     0.004307
NI3886   NI        0.480785    0.534297    0.853839     0.004307
NI3887   NI        0.520653    0.488255    0.834797     0.004307
NI3888   NI        0.509514    0.516285    0.818475     0.004307
NI3889   NI        0.574775    0.477993    0.808490     0.004307
NI3890   NI        0.560462    0.533790    0.830751     0.004307
NI3891   NI        0.602767    0.501485    0.841769     0.004307
NI3892   NI        0.603768    0.518827    0.813054     0.004307
NI3893   NI        0.635959    0.491379    0.792895     0.004307
NI3894   NI        0.247452    0.589655    0.806226     0.004307
NI3895   NI        0.297008    0.576254    0.807164     0.004307
NI3896   NI        0.314509    0.559060    0.830727     0.004307
NI3897   NI        0.315763    0.583019    0.806376     0.004307
NI3898   NI        0.363220    0.562236    0.814754     0.004307
NI3899   NI        0.340269    0.612011    0.837660     0.004307
NI3900   NI        0.404156    0.586471    0.845748     0.004307
NI3901   NI        0.373886    0.593914    0.808213     0.004307
NI3902   NI        0.410916    0.564450    0.811462     0.004307
NI3903   NI        0.414822    0.580645    0.853263     0.004307
NI3904   NI        0.441271    0.562069    0.829492     0.004307
NI3905   NI        0.445420    0.610052    0.830734     0.004307
NI3906   NI        0.478019    0.551201    0.809472     0.004307
NI3907   NI        0.494627    0.610347    0.836193     0.004307
NI3908   NI        0.513414    0.565673    0.836301     0.004307
NI3909   NI        0.515904    0.586513    0.803079     0.004307
NI3910   NI        0.547730    0.552758    0.806133     0.004307
NI3911   NI        0.615450    0.599463    0.827038     0.004307
NI3912   NI        0.340853    0.622983    0.798870     0.004307
NI3913   NI        0.389550    0.668125    0.781157     0.004307
NI3914   NI        0.421544    0.650471    0.828211     0.004307
NI3915   NI        0.452131    0.652892    0.812459     0.004307
NI3916   NI        0.461383    0.629817    0.807745     0.004307
NI3917   NI        0.385727    0.387131    0.869126     0.004307
NI3918   NI        0.419060    0.355340    0.868948     0.004307
NI3919   NI        0.452099    0.388128    0.869160     0.004307
NI3920   NI        0.348055    0.420138    0.872088     0.004307
NI3921   NI        0.391912    0.441099    0.889028     0.004307
NI3922   NI        0.386166    0.425056    0.900470     0.004307
NI3923   NI        0.453401    0.457744    0.864746     0.004307
NI3924   NI        0.487695    0.422130    0.869889     0.004307
NI3925   NI        0.417917    0.489792    0.870248     0.004307
