data_00001
_audit_creation_method   'DISCUS'

_data_chemical_name_common 'Au.cell: Pearson 85'

_cell_length_a             57.1046
_cell_length_b             57.1046
_cell_length_c             57.1046
_cell_angle_alpha     90.0000
_cell_angle_beta      90.0000
_cell_angle_gamma     90.0000

_symmetry_space_group_name_H-M   'P1              '

loop_
_atom_site_label
_atom_site_symbol
_atom_site_fract_x
_atom_site_fract_y
_atom_site_fract_z
_atom_site_u_iso_or_equiv
AU1   AU        0.357614    0.250392    0.039158     0.007504
AU2   AU        0.428598    0.249204    0.044020     0.007504
AU3   AU        0.498726    0.254651    0.045059     0.007504
PT4   PT        0.286428    0.325825    0.038691     0.004505
AU5   AU        0.324238    0.328609    0.006190     0.007504
PT6   PT        0.359602    0.322994    0.040497     0.004505
AU7   AU        0.391770    0.287591    0.041736     0.007504
AU8   AU        0.427744    0.323658    0.044390     0.007504
AU9   AU        0.462243    0.287437    0.044104     0.007504
PT10   PT        0.500625    0.323049    0.044063     0.004505
PT11   PT        0.537238    0.290804    0.040858     0.004505
AU12   AU        0.529902    0.328139    0.000714     0.007504
AU13   AU        0.249698    0.362364    0.042531     0.007504
PT14   PT        0.286912    0.395152    0.039954     0.004505
PT15   PT        0.323883    0.359652    0.045993     0.004505
AU16   AU        0.358462    0.395100    0.045772     0.007504
AU17   AU        0.391281    0.360137    0.043297     0.007504
PT18   PT        0.389779    0.391772    0.005369     0.004505
AU19   AU        0.428895    0.356430    0.006732     0.007504
AU20   AU        0.426744    0.393822    0.040953     0.007504
AU21   AU        0.461025    0.360047    0.046372     0.007504
AU22   AU        0.462164    0.395541    0.004574     0.007504
PT23   PT        0.537437    0.403255    0.001619     0.004505
PT24   PT        0.532151    0.360636    0.042969     0.004505
PT25   PT        0.570355    0.394843    0.041805     0.004505
AU26   AU        0.604334    0.356593    0.040858     0.007504
PT27   PT        0.252427    0.428318    0.043770     0.004505
PT28   PT        0.287554    0.465307    0.046379     0.004505
PT29   PT        0.324220    0.431898    0.048414     0.004505
PT30   PT        0.356772    0.428529    0.010567     0.004505
PT31   PT        0.358029    0.463630    0.047076     0.004505
PT32   PT        0.393322    0.429167    0.043722     0.004505
AU33   AU        0.390515    0.463629    0.006687     0.007504
AU34   AU        0.426203    0.429888    0.006417     0.007504
PT35   PT        0.427335    0.465871    0.041529     0.004505
PT36   PT        0.461612    0.430455    0.040293     0.004505
AU37   AU        0.461075    0.466052    0.005955     0.007504
AU38   AU        0.496803    0.430229    0.007520     0.007504
AU39   AU        0.497604    0.462284    0.045588     0.007504
PT40   PT        0.533604    0.428712    0.045421     0.004505
AU41   AU        0.565743    0.464935    0.042397     0.007504
AU42   AU        0.603237    0.466532    0.005305     0.007504
AU43   AU        0.251291    0.500572    0.045217     0.007504
AU44   AU        0.286541    0.534275    0.045561     0.007504
PT45   PT        0.325592    0.498907    0.044676     0.004505
AU46   AU        0.355172    0.537517    0.041363     0.007504
AU47   AU        0.391867    0.502026    0.042219     0.007504
PT48   PT        0.429121    0.572865    0.007069     0.004505
AU49   AU        0.427894    0.534115    0.041089     0.007504
PT50   PT        0.464392    0.496840    0.046212     0.004505
AU51   AU        0.495074    0.535513    0.040045     0.007504
AU52   AU        0.531812    0.498622    0.046555     0.007504
AU53   AU        0.567677    0.532320    0.047874     0.007504
PT54   PT        0.604781    0.496484    0.045943     0.004505
PT55   PT        0.359842    0.573977    0.002703     0.004505
PT56   PT        0.361607    0.606046    0.039870     0.004505
AU57   AU        0.395473    0.569676    0.041718     0.007504
PT58   PT        0.424915    0.608494    0.041384     0.004505
AU59   AU        0.461500    0.572367    0.042704     0.007504
AU60   AU        0.499411    0.601523    0.039319     0.007504
AU61   AU        0.534996    0.567421    0.045974     0.007504
AU62   AU        0.249935    0.184163    0.074927     0.007504
AU63   AU        0.359423    0.183330    0.112981     0.007504
PT64   PT        0.391578    0.144346    0.113216     0.004505
PT65   PT        0.391780    0.185086    0.075545     0.004505
AU66   AU        0.429507    0.181999    0.114190     0.007504
PT67   PT        0.467047    0.146448    0.110920     0.004505
AU68   AU        0.464581    0.181137    0.075510     0.007504
AU69   AU        0.499552    0.182007    0.114984     0.007504
AU70   AU        0.565041    0.184399    0.113110     0.007504
PT71   PT        0.218556    0.252778    0.110445     0.004505
AU72   AU        0.252318    0.216181    0.111101     0.007504
PT73   PT        0.252793    0.257548    0.072396     0.004505
PT74   PT        0.287353    0.254408    0.113064     0.004505
PT75   PT        0.325794    0.218306    0.115985     0.004505
AU76   AU        0.322732    0.251201    0.077849     0.007504
PT77   PT        0.351278    0.216134    0.003152     0.004505
AU78   AU        0.358892    0.253458    0.114732     0.007504
PT79   PT        0.392570    0.219752    0.115547     0.004505
AU80   AU        0.392714    0.252631    0.076269     0.007504
PT81   PT        0.426258    0.218455    0.082614     0.004505
AU82   AU        0.428363    0.255121    0.115490     0.007504
AU83   AU        0.463285    0.218538    0.114734     0.007504
PT84   PT        0.464968    0.253185    0.080758     0.004505
AU85   AU        0.499680    0.216373    0.077770     0.007504
PT86   PT        0.498278    0.254483    0.116552     0.004505
AU87   AU        0.530210    0.218561    0.114165     0.007504
AU88   AU        0.532164    0.254794    0.082000     0.007504
PT89   PT        0.568373    0.252457    0.113722     0.004505
AU90   AU        0.601683    0.219865    0.112084     0.007504
PT91   PT        0.604247    0.253960    0.075248     0.004505
PT92   PT        0.638492    0.256726    0.114239     0.004505
AU93   AU        0.180530    0.286743    0.111079     0.007504
PT94   PT        0.218520    0.323050    0.110860     0.004505
PT95   PT        0.253186    0.291472    0.113078     0.004505
AU96   AU        0.252216    0.327411    0.076580     0.007504
PT97   PT        0.287711    0.290073    0.077488     0.004505
AU98   AU        0.287197    0.327185    0.114963     0.007504
PT99   PT        0.325219    0.289619    0.115986     0.004505
AU100   AU        0.323590    0.323850    0.078775     0.007504
PT101   PT        0.357913    0.287444    0.078432     0.004505
AU102   AU        0.356732    0.323970    0.115716     0.007504
PT103   PT        0.394382    0.289439    0.115690     0.004505
AU104   AU        0.394126    0.323490    0.078363     0.007504
PT105   PT        0.427507    0.289863    0.079916     0.004505
AU106   AU        0.429534    0.323383    0.115973     0.007504
AU107   AU        0.462768    0.289511    0.115604     0.007504
AU108   AU        0.463815    0.324731    0.078659     0.007504
AU109   AU        0.496749    0.290892    0.080037     0.007504
PT110   PT        0.498005    0.323055    0.116703     0.004505
PT111   PT        0.534030    0.290588    0.115098     0.004505
AU112   AU        0.533976    0.325450    0.081557     0.007504
PT113   PT        0.567481    0.288341    0.080686     0.004505
PT114   PT        0.568832    0.324333    0.116219     0.004505
PT115   PT        0.602629    0.288927    0.114081     0.004505
AU116   AU        0.600984    0.325763    0.081509     0.007504
AU117   AU        0.638109    0.326305    0.117261     0.007504
PT118   PT        0.673688    0.290681    0.112555     0.004505
PT119   PT        0.143297    0.394189    0.112099     0.004505
AU120   AU        0.178293    0.357539    0.112246     0.007504
PT121   PT        0.180696    0.393227    0.075202     0.004505
PT122   PT        0.213886    0.357268    0.076207     0.004505
PT123   PT        0.215507    0.393713    0.114687     0.004505
PT124   PT        0.252633    0.360989    0.116312     0.004505
AU125   AU        0.250027    0.392984    0.079988     0.007504
AU126   AU        0.286891    0.361795    0.077597     0.007504
PT127   PT        0.287819    0.394693    0.113732     0.004505
PT128   PT        0.323335    0.359066    0.114934     0.004505
PT129   PT        0.323444    0.394778    0.081461     0.004505
PT130   PT        0.359251    0.359589    0.081298     0.004505
AU131   AU        0.358509    0.394520    0.116361     0.007504
PT132   PT        0.392839    0.360180    0.115621     0.004505
AU133   AU        0.392717    0.394508    0.080230     0.007504
AU134   AU        0.428370    0.357500    0.080652     0.007504
AU135   AU        0.428513    0.393580    0.116142     0.007504
PT136   PT        0.462404    0.360803    0.116399     0.004505
AU137   AU        0.464037    0.394512    0.077995     0.007504
PT138   PT        0.498858    0.359544    0.082872     0.004505
PT139   PT        0.499765    0.395215    0.118125     0.004505
PT140   PT        0.535373    0.360909    0.116528     0.004505
AU141   AU        0.533765    0.394513    0.082181     0.007504
AU142   AU        0.567859    0.361106    0.081411     0.007504
AU143   AU        0.570605    0.393470    0.118462     0.007504
PT144   PT        0.605050    0.360058    0.117233     0.004505
AU145   AU        0.604733    0.394224    0.079910     0.007504
AU146   AU        0.640103    0.358261    0.076214     0.007504
AU147   AU        0.637900    0.395400    0.115480     0.007504
AU148   AU        0.673210    0.361337    0.111974     0.007504
PT149   PT        0.682182    0.354575    0.046593     0.004505
AU150   AU        0.709657    0.393970    0.114659     0.007504
AU151   AU        0.140801    0.465448    0.112336     0.007504
PT152   PT        0.178027    0.430939    0.110824     0.004505
AU153   AU        0.181981    0.458807    0.071196     0.007504
AU154   AU        0.218029    0.429952    0.080092     0.007504
AU155   AU        0.217104    0.464889    0.114448     0.007504
AU156   AU        0.253353    0.429300    0.115316     0.007504
AU157   AU        0.251123    0.466103    0.077895     0.007504
PT158   PT        0.288475    0.426198    0.078504     0.004505
PT159   PT        0.288499    0.464511    0.116045     0.004505
AU160   AU        0.321941    0.429835    0.115510     0.007504
PT161   PT        0.324011    0.465954    0.080738     0.004505
PT162   PT        0.359257    0.430201    0.081768     0.004505
PT163   PT        0.358032    0.465647    0.115258     0.004505
PT164   PT        0.395088    0.428156    0.116709     0.004505
PT165   PT        0.392391    0.465296    0.080396     0.004505
AU166   AU        0.427501    0.429417    0.078471     0.007504
AU167   AU        0.429380    0.464387    0.115775     0.007504
PT168   PT        0.463253    0.428784    0.114431     0.004505
AU169   AU        0.464035    0.463286    0.082560     0.007504
AU170   AU        0.499927    0.429392    0.080578     0.007504
PT171   PT        0.499000    0.464483    0.118843     0.004505
PT172   PT        0.534861    0.430242    0.117336     0.004505
AU173   AU        0.533069    0.464060    0.083577     0.007504
PT174   PT        0.568614    0.428461    0.080195     0.004505
AU175   AU        0.568330    0.463461    0.117900     0.007504
PT176   PT        0.603942    0.428963    0.116973     0.004505
PT177   PT        0.623356    0.452808    0.066315     0.004505
PT178   PT        0.679352    0.393755    0.075801     0.004505
AU179   AU        0.636633    0.464795    0.116215     0.007504
PT180   PT        0.673685    0.428066    0.114870     0.004505
AU181   AU        0.674248    0.462213    0.078508     0.007504
AU182   AU        0.706459    0.463018    0.115699     0.007504
PT183   PT        0.176626    0.497023    0.112101     0.004505
AU184   AU        0.213661    0.497385    0.077899     0.007504
PT185   PT        0.215026    0.533068    0.113324     0.004505
AU186   AU        0.251147    0.498988    0.114405     0.007504
PT187   PT        0.252328    0.534944    0.080392     0.004505
AU188   AU        0.287826    0.500354    0.080569     0.007504
PT189   PT        0.287668    0.537615    0.116566     0.004505
PT190   PT        0.325007    0.498953    0.116689     0.004505
PT191   PT        0.324354    0.534361    0.081720     0.004505
AU192   AU        0.357083    0.499968    0.081696     0.007504
PT193   PT        0.360320    0.534559    0.117638     0.004505
AU194   AU        0.393596    0.499874    0.114878     0.007504
AU195   AU        0.392940    0.533267    0.078709     0.007504
AU196   AU        0.427331    0.496541    0.079661     0.007504
PT197   PT        0.426515    0.534703    0.115795     0.004505
PT198   PT        0.464918    0.498736    0.117895     0.004505
AU199   AU        0.461965    0.533481    0.080567     0.007504
PT200   PT        0.497760    0.497562    0.082295     0.004505
PT201   PT        0.499118    0.533684    0.117076     0.004505
AU202   AU        0.536823    0.500595    0.115201     0.007504
AU203   AU        0.531836    0.533091    0.080112     0.007504
AU204   AU        0.570335    0.497146    0.082077     0.007504
AU205   AU        0.571191    0.535471    0.114887     0.007504
AU206   AU        0.603931    0.499754    0.116225     0.007504
PT207   PT        0.605572    0.534203    0.079153     0.004505
AU208   AU        0.641691    0.497308    0.078751     0.007504
PT209   PT        0.639307    0.536335    0.116895     0.004505
AU210   AU        0.672792    0.499673    0.114431     0.007504
PT211   PT        0.179523    0.571527    0.110434     0.004505
PT212   PT        0.216221    0.607052    0.111020     0.004505
AU213   AU        0.246376    0.569665    0.113443     0.007504
PT214   PT        0.247092    0.602407    0.074616     0.004505
PT215   PT        0.288069    0.570540    0.081198     0.004505
PT216   PT        0.285439    0.605359    0.114790     0.004505
AU217   AU        0.325056    0.568704    0.117429     0.007504
PT218   PT        0.322562    0.604206    0.079411     0.004505
PT219   PT        0.360559    0.567512    0.079321     0.004505
AU220   AU        0.357504    0.605738    0.113539     0.007504
AU221   AU        0.395893    0.567997    0.115423     0.007504
AU222   AU        0.393678    0.602507    0.078954     0.007504
AU223   AU        0.427790    0.569384    0.078835     0.007504
AU224   AU        0.429475    0.605617    0.111938     0.007504
AU225   AU        0.463517    0.569417    0.114918     0.007504
AU226   AU        0.464251    0.607145    0.075073     0.007504
PT227   PT        0.498101    0.568603    0.077908     0.004505
AU228   AU        0.499451    0.606105    0.113940     0.007504
PT229   PT        0.533454    0.567905    0.116847     0.004505
PT230   PT        0.535933    0.605174    0.076739     0.004505
PT231   PT        0.569405    0.569087    0.081227     0.004505
AU232   AU        0.569111    0.606281    0.114621     0.007504
AU233   AU        0.604598    0.571288    0.113465     0.007504
AU234   AU        0.605263    0.603967    0.074464     0.007504
AU235   AU        0.639278    0.605268    0.114514     0.007504
AU236   AU        0.676430    0.570749    0.117637     0.007504
PT237   PT        0.251719    0.646213    0.113569     0.004505
AU238   AU        0.287092    0.676174    0.111039     0.007504
PT239   PT        0.323376    0.640998    0.114742     0.004505
AU240   AU        0.360215    0.640422    0.079364     0.007504
AU241   AU        0.358341    0.676342    0.111917     0.007504
AU242   AU        0.394875    0.641514    0.111433     0.007504
PT243   PT        0.396494    0.680577    0.076607     0.004505
PT244   PT        0.429137    0.644043    0.076066     0.004505
AU245   AU        0.430742    0.680168    0.112291     0.007504
PT246   PT        0.463031    0.639525    0.111901     0.004505
AU247   AU        0.466326    0.675505    0.079810     0.007504
PT248   PT        0.502518    0.640396    0.075909     0.004505
PT249   PT        0.501634    0.678311    0.111454     0.004505
AU250   AU        0.534310    0.640972    0.114903     0.007504
AU251   AU        0.566567    0.677255    0.115051     0.007504
AU252   AU        0.603762    0.641521    0.110233     0.007504
PT253   PT        0.391766    0.716810    0.111729     0.004505
PT254   PT        0.465345    0.715670    0.112104     0.004505
PT255   PT        0.292187    0.108543    0.184867     0.004505
PT256   PT        0.358249    0.112530    0.186778     0.004505
PT257   PT        0.393010    0.076679    0.187643     0.004505
PT258   PT        0.395930    0.111000    0.149588     0.004505
AU259   AU        0.431932    0.108810    0.184154     0.007504
AU260   AU        0.467834    0.071470    0.187338     0.007504
AU261   AU        0.465596    0.112348    0.148392     0.007504
AU262   AU        0.498763    0.112150    0.187824     0.007504
PT263   PT        0.567214    0.110824    0.184157     0.004505
PT264   PT        0.214320    0.188060    0.181026     0.004505
PT265   PT        0.256035    0.144794    0.184218     0.004505
PT266   PT        0.249780    0.180309    0.149779     0.004505
AU267   AU        0.251086    0.145045    0.112614     0.007504
AU268   AU        0.288122    0.184103    0.181305     0.007504
PT269   PT        0.324763    0.147381    0.185695     0.004505
PT270   PT        0.323774    0.182715    0.151099     0.004505
AU271   AU        0.357878    0.147534    0.151428     0.007504
PT272   PT        0.359868    0.184310    0.185323     0.004505
AU273   AU        0.392570    0.145301    0.184961     0.007504
AU274   AU        0.394304    0.183228    0.149357     0.007504
PT275   PT        0.429165    0.145604    0.148165     0.004505
AU276   AU        0.427696    0.182604    0.185117     0.007504
PT277   PT        0.465198    0.147232    0.187257     0.004505
AU278   AU        0.465328    0.180132    0.149730     0.007504
PT279   PT        0.501660    0.145622    0.148272     0.004505
AU280   AU        0.498248    0.183819    0.185139     0.007504
PT281   PT        0.534658    0.149752    0.185913     0.004505
PT282   PT        0.533706    0.182958    0.149822     0.004505
AU283   AU        0.568707    0.149165    0.149928     0.007504
PT284   PT        0.569434    0.183337    0.184577     0.004505
AU285   AU        0.605108    0.147623    0.182895     0.007504
AU286   AU        0.605560    0.184213    0.146954     0.007504
AU287   AU        0.637637    0.183802    0.185224     0.007504
PT288   PT        0.143459    0.254843    0.184115     0.004505
PT289   PT        0.140788    0.223292    0.148217     0.004505
PT290   PT        0.180940    0.254990    0.151590     0.004505
PT291   PT        0.217858    0.220632    0.146690     0.004505
PT292   PT        0.218842    0.254576    0.185560     0.004505
AU293   AU        0.253387    0.218650    0.184612     0.007504
AU294   AU        0.252562    0.254877    0.149015     0.007504
PT295   PT        0.289218    0.219908    0.148570     0.004505
AU296   AU        0.287424    0.254762    0.185106     0.007504
AU297   AU        0.322028    0.219082    0.185343     0.007504
AU298   AU        0.323965    0.254620    0.151340     0.007504
PT299   PT        0.359398    0.220043    0.151003     0.004505
PT300   PT        0.358495    0.255038    0.185996     0.004505
PT301   PT        0.394237    0.221214    0.184979     0.004505
PT302   PT        0.393058    0.256472    0.151818     0.004505
PT303   PT        0.426757    0.220785    0.150808     0.004505
PT304   PT        0.428081    0.254089    0.187108     0.004505
PT305   PT        0.463525    0.219858    0.185001     0.004505
AU306   AU        0.463602    0.253612    0.150069     0.007504
AU307   AU        0.498384    0.217335    0.150328     0.007504
AU308   AU        0.498021    0.254081    0.185120     0.007504
PT309   PT        0.534918    0.218654    0.185830     0.004505
AU310   AU        0.533599    0.253548    0.150979     0.007504
AU311   AU        0.568857    0.216994    0.149975     0.007504
AU312   AU        0.569086    0.254491    0.185294     0.007504
AU313   AU        0.604535    0.219798    0.184582     0.007504
AU314   AU        0.602820    0.254544    0.149469     0.007504
AU315   AU        0.640622    0.220152    0.147615     0.007504
AU316   AU        0.640806    0.254622    0.184017     0.007504
AU317   AU        0.673156    0.217301    0.184867     0.007504
PT318   PT        0.680624    0.184247    0.147639     0.004505
AU319   AU        0.709288    0.253728    0.184927     0.007504
AU320   AU        0.109052    0.289419    0.183780     0.007504
PT321   PT        0.147777    0.290189    0.148069     0.004505
AU322   AU        0.143747    0.328170    0.184644     0.007504
AU323   AU        0.180909    0.291619    0.183703     0.007504
AU324   AU        0.183923    0.324004    0.148386     0.007504
AU325   AU        0.216930    0.288483    0.149172     0.007504
AU326   AU        0.218239    0.322592    0.185012     0.007504
PT327   PT        0.253834    0.290114    0.186260     0.004505
PT328   PT        0.251458    0.324591    0.149919     0.004505
PT329   PT        0.287823    0.289789    0.148630     0.004505
PT330   PT        0.286466    0.325684    0.183728     0.004505
PT331   PT        0.322621    0.290015    0.184263     0.004505
PT332   PT        0.320964    0.324696    0.150255     0.004505
AU333   AU        0.357359    0.290464    0.150978     0.007504
PT334   PT        0.357020    0.324394    0.185375     0.004505
PT335   PT        0.394137    0.288594    0.187443     0.004505
PT336   PT        0.392972    0.324094    0.150384     0.004505
AU337   AU        0.429882    0.288510    0.150782     0.007504
AU338   AU        0.429304    0.322623    0.187452     0.007504
PT339   PT        0.463358    0.289463    0.184991     0.004505
PT340   PT        0.464275    0.324146    0.150716     0.004505
AU341   AU        0.499346    0.290028    0.151133     0.007504
PT342   PT        0.498744    0.323354    0.186785     0.004505
PT343   PT        0.534556    0.289217    0.186050     0.004505
AU344   AU        0.533265    0.323954    0.151287     0.007504
AU345   AU        0.568023    0.288899    0.149524     0.007504
PT346   PT        0.568723    0.323171    0.185345     0.004505
PT347   PT        0.602886    0.290119    0.186824     0.004505
AU348   AU        0.604349    0.324135    0.151705     0.007504
PT349   PT        0.638946    0.290432    0.150189     0.004505
PT350   PT        0.638954    0.323337    0.187796     0.004505
PT351   PT        0.675888    0.290871    0.185979     0.004505
AU352   AU        0.676175    0.324366    0.149965     0.007504
PT353   PT        0.709204    0.287087    0.148730     0.004505
AU354   AU        0.711032    0.324941    0.185218     0.007504
AU355   AU        0.773306    0.234420    0.100452     0.007504
PT356   PT        0.072194    0.398347    0.186586     0.004505
AU357   AU        0.105897    0.362690    0.186773     0.007504
AU358   AU        0.107991    0.395990    0.147518     0.007504
AU359   AU        0.144136    0.362775    0.148504     0.007504
AU360   AU        0.144368    0.395410    0.185982     0.007504
AU361   AU        0.183521    0.358280    0.185054     0.007504
AU362   AU        0.182447    0.394473    0.150261     0.007504
AU363   AU        0.216612    0.359479    0.150328     0.007504
AU364   AU        0.217141    0.395780    0.186931     0.007504
PT365   PT        0.253795    0.358748    0.184875     0.004505
PT366   PT        0.253432    0.395054    0.150910     0.004505
AU367   AU        0.290455    0.360038    0.150633     0.007504
PT368   PT        0.288332    0.394720    0.186010     0.004505
PT369   PT        0.323623    0.359615    0.184457     0.004505
AU370   AU        0.323722    0.393507    0.150140     0.007504
PT371   PT        0.358830    0.360296    0.152481     0.004505
PT372   PT        0.358776    0.394350    0.185804     0.004505
PT373   PT        0.393088    0.358245    0.186767     0.004505
PT374   PT        0.392725    0.394156    0.152138     0.004505
PT375   PT        0.428680    0.359473    0.152206     0.004505
PT376   PT        0.428707    0.392891    0.186679     0.004505
PT377   PT        0.463919    0.357376    0.186800     0.004505
PT378   PT        0.464632    0.394472    0.151871     0.004505
AU379   AU        0.498292    0.357625    0.150052     0.007504
PT380   PT        0.499993    0.394482    0.187945     0.004505
PT381   PT        0.532198    0.357365    0.186051     0.004505
AU382   AU        0.533132    0.394147    0.152746     0.007504
PT383   PT        0.567979    0.358665    0.151613     0.004505
AU384   AU        0.569106    0.394026    0.186194     0.007504
PT385   PT        0.604747    0.358002    0.188253     0.004505
AU386   AU        0.602755    0.394114    0.150738     0.007504
PT387   PT        0.640554    0.359205    0.152766     0.004505
PT388   PT        0.639926    0.392380    0.186952     0.004505
AU389   AU        0.677369    0.360511    0.182945     0.007504
PT390   PT        0.673564    0.394471    0.150233     0.004505
AU391   AU        0.711443    0.358900    0.146408     0.007504
AU392   AU        0.711178    0.394233    0.186572     0.007504
PT393   PT        0.745389    0.359898    0.182827     0.004505
PT394   PT        0.745504    0.394941    0.144628     0.004505
PT395   PT        0.779942    0.393185    0.181250     0.004505
AU396   AU        0.070856    0.465057    0.186150     0.007504
AU397   AU        0.109047    0.430337    0.184605     0.007504
PT398   PT        0.109069    0.463046    0.150227     0.004505
AU399   AU        0.144935    0.430340    0.148590     0.007504
AU400   AU        0.143415    0.463954    0.185730     0.007504
AU401   AU        0.179782    0.428768    0.186161     0.007504
AU402   AU        0.178870    0.466367    0.148925     0.007504
PT403   PT        0.217908    0.430751    0.150127     0.004505
PT404   PT        0.216604    0.465501    0.185287     0.004505
PT405   PT        0.253294    0.429537    0.185740     0.004505
AU406   AU        0.253683    0.465791    0.149796     0.007504
AU407   AU        0.287962    0.429563    0.151135     0.007504
AU408   AU        0.286739    0.465245    0.184522     0.007504
AU409   AU        0.323165    0.428587    0.186488     0.007504
PT410   PT        0.322282    0.465104    0.151665     0.004505
PT411   PT        0.358119    0.428525    0.151062     0.004505
PT412   PT        0.357987    0.464052    0.186772     0.004505
AU413   AU        0.393134    0.428902    0.186498     0.007504
AU414   AU        0.392990    0.465323    0.151524     0.007504
PT415   PT        0.429002    0.428620    0.151968     0.004505
PT416   PT        0.429123    0.464111    0.187764     0.004505
PT417   PT        0.464776    0.428003    0.187039     0.004505
PT418   PT        0.463568    0.464118    0.152112     0.004505
AU419   AU        0.499962    0.430259    0.151430     0.007504
PT420   PT        0.498149    0.463185    0.187446     0.004505
AU421   AU        0.533249    0.430696    0.186417     0.007504
PT422   PT        0.533482    0.465429    0.151533     0.004505
AU423   AU        0.569027    0.429512    0.152492     0.007504
PT424   PT        0.568397    0.464369    0.187379     0.004505
AU425   AU        0.606081    0.428997    0.184601     0.007504
PT426   PT        0.604496    0.463746    0.151049     0.004505
AU427   AU        0.639465    0.428946    0.151307     0.007504
PT428   PT        0.639547    0.463447    0.185718     0.004505
AU429   AU        0.674357    0.428419    0.186024     0.007504
AU430   AU        0.672278    0.463181    0.151263     0.007504
PT431   PT        0.709623    0.428286    0.151547     0.004505
AU432   AU        0.708987    0.464289    0.185165     0.007504
AU433   AU        0.746603    0.430037    0.186025     0.007504
PT434   PT        0.745891    0.463464    0.152761     0.004505
AU435   AU        0.784503    0.462113    0.187777     0.007504
AU436   AU        0.106533    0.498231    0.185359     0.007504
AU437   AU        0.142623    0.501336    0.151340     0.007504
PT438   PT        0.145678    0.534563    0.184264     0.004505
PT439   PT        0.181995    0.499533    0.187263     0.004505
AU440   AU        0.183617    0.533764    0.151841     0.007504
PT441   PT        0.218369    0.499924    0.150708     0.004505
PT442   PT        0.217240    0.534899    0.186805     0.004505
PT443   PT        0.254461    0.500415    0.186717     0.004505
PT444   PT        0.252614    0.533900    0.149709     0.004505
AU445   AU        0.288293    0.500532    0.150406     0.007504
PT446   PT        0.288925    0.535528    0.186291     0.004505
PT447   PT        0.323762    0.498333    0.186777     0.004505
AU448   AU        0.323830    0.533218    0.151492     0.007504
PT449   PT        0.358649    0.498802    0.152110     0.004505
PT450   PT        0.357331    0.535556    0.186582     0.004505
AU451   AU        0.394151    0.500431    0.186557     0.007504
PT452   PT        0.393153    0.533513    0.153453     0.004505
PT453   PT        0.428554    0.498018    0.151228     0.004505
PT454   PT        0.428801    0.534642    0.186551     0.004505
PT455   PT        0.464454    0.500054    0.187170     0.004505
PT456   PT        0.464402    0.533234    0.152496     0.004505
PT457   PT        0.498872    0.498313    0.152950     0.004505
AU458   AU        0.499619    0.535066    0.187062     0.007504
AU459   AU        0.533561    0.499337    0.187234     0.007504
AU460   AU        0.534104    0.533414    0.151739     0.007504
PT461   PT        0.569014    0.498906    0.151993     0.004505
AU462   AU        0.568511    0.536592    0.187391     0.007504
PT463   PT        0.604288    0.498785    0.187702     0.004505
PT464   PT        0.603713    0.532594    0.151602     0.004505
AU465   AU        0.639110    0.499321    0.151289     0.007504
PT466   PT        0.639367    0.533623    0.186708     0.004505
PT467   PT        0.674406    0.498052    0.187573     0.004505
PT468   PT        0.675544    0.533301    0.151869     0.004505
PT469   PT        0.708671    0.498557    0.153235     0.004505
PT470   PT        0.710901    0.533875    0.186028     0.004505
AU471   AU        0.744276    0.498669    0.186585     0.007504
AU472   AU        0.107063    0.572399    0.183607     0.007504
PT473   PT        0.144218    0.569020    0.147072     0.004505
PT474   PT        0.146235    0.604202    0.182438     0.004505
PT475   PT        0.181797    0.569455    0.185337     0.004505
AU476   AU        0.179626    0.606308    0.148881     0.007504
AU477   AU        0.216388    0.572162    0.145807     0.007504
AU478   AU        0.213787    0.604133    0.183679     0.007504
PT479   PT        0.250833    0.569088    0.186352     0.004505
AU480   AU        0.250365    0.603421    0.148160     0.007504
PT481   PT        0.286359    0.571452    0.152814     0.004505
PT482   PT        0.285023    0.607723    0.187159     0.004505
PT483   PT        0.320986    0.570787    0.184678     0.004505
AU484   AU        0.323698    0.605575    0.149404     0.007504
PT485   PT        0.359282    0.571797    0.151000     0.004505
AU486   AU        0.358553    0.605544    0.186573     0.007504
PT487   PT        0.393258    0.569131    0.186859     0.004505
AU488   AU        0.394677    0.605545    0.147708     0.007504
AU489   AU        0.429449    0.569272    0.150940     0.007504
AU490   AU        0.429347    0.603533    0.186528     0.007504
PT491   PT        0.462425    0.569597    0.186931     0.004505
PT492   PT        0.462412    0.604624    0.150799     0.004505
PT493   PT        0.499787    0.569018    0.152608     0.004505
PT494   PT        0.498042    0.604748    0.187817     0.004505
PT495   PT        0.535280    0.571042    0.186959     0.004505
AU496   AU        0.535122    0.603271    0.150191     0.007504
PT497   PT        0.571927    0.569802    0.150511     0.004505
AU498   AU        0.571720    0.604190    0.185985     0.007504
PT499   PT        0.604455    0.568488    0.186791     0.004505
PT500   PT        0.606254    0.604310    0.147954     0.004505
PT501   PT        0.638547    0.569465    0.151297     0.004505
PT502   PT        0.639510    0.604751    0.185353     0.004505
AU503   AU        0.674696    0.566812    0.185280     0.007504
PT504   PT        0.716677    0.601310    0.109921     0.004505
AU505   AU        0.713913    0.568122    0.148528     0.007504
AU506   AU        0.707730    0.601372    0.188042     0.007504
AU507   AU        0.748292    0.570213    0.186096     0.007504
AU508   AU        0.181687    0.641484    0.184565     0.007504
PT509   PT        0.216067    0.640478    0.147010     0.004505
AU510   AU        0.217109    0.677896    0.188268     0.007504
PT511   PT        0.249665    0.640732    0.186427     0.004505
AU512   AU        0.251370    0.677536    0.151305     0.007504
AU513   AU        0.285510    0.638032    0.151081     0.007504
PT514   PT        0.290466    0.677275    0.184023     0.004505
AU515   AU        0.322339    0.639766    0.185838     0.007504
AU516   AU        0.323577    0.677743    0.146448     0.007504
AU517   AU        0.357375    0.640420    0.149176     0.007504
AU518   AU        0.357201    0.674812    0.183628     0.007504
PT519   PT        0.394329    0.638833    0.183973     0.004505
PT520   PT        0.391830    0.677337    0.145227     0.004505
PT521   PT        0.430550    0.641175    0.148654     0.004505
AU522   AU        0.428572    0.677642    0.183376     0.007504
AU523   AU        0.464115    0.640196    0.187410     0.007504
AU524   AU        0.466619    0.679580    0.149679     0.007504
AU525   AU        0.497623    0.638123    0.154231     0.007504
PT526   PT        0.499302    0.674227    0.188001     0.004505
PT527   PT        0.534818    0.637766    0.185465     0.004505
PT528   PT        0.532214    0.676530    0.151636     0.004505
AU529   AU        0.568817    0.640150    0.148785     0.007504
AU530   AU        0.568267    0.674376    0.186541     0.007504
AU531   AU        0.606007    0.639814    0.182577     0.007504
PT532   PT        0.604054    0.675416    0.146039     0.004505
PT533   PT        0.644821    0.639841    0.147723     0.004505
PT534   PT        0.638136    0.676719    0.184104     0.004505
AU535   AU        0.673086    0.643131    0.185344     0.007504
AU536   AU        0.254227    0.713994    0.187222     0.007504
PT537   PT        0.289819    0.712444    0.148237     0.004505
PT538   PT        0.287568    0.748343    0.184554     0.004505
AU539   AU        0.322077    0.712651    0.186679     0.007504
AU540   AU        0.360882    0.713072    0.145989     0.007504
AU541   AU        0.356949    0.746573    0.184621     0.007504
AU542   AU        0.395262    0.713443    0.181136     0.007504
PT543   PT        0.392998    0.753663    0.147218     0.004505
AU544   AU        0.429659    0.715451    0.146035     0.007504
PT545   PT        0.430940    0.752571    0.182154     0.004505
AU546   AU        0.463418    0.714828    0.184945     0.007504
AU547   AU        0.463190    0.751039    0.148989     0.007504
AU548   AU        0.498714    0.715400    0.146253     0.007504
AU549   AU        0.501384    0.750760    0.183231     0.007504
AU550   AU        0.534892    0.712388    0.184165     0.007504
AU551   AU        0.568024    0.715004    0.148527     0.007504
AU552   AU        0.567387    0.752817    0.185223     0.007504
AU553   AU        0.603510    0.713774    0.184226     0.007504
AU554   AU        0.392215    0.781808    0.184849     0.007504
AU555   AU        0.464342    0.787395    0.184751     0.007504
AU556   AU        0.358923    0.041165    0.254597     0.007504
PT557   PT        0.430114    0.036764    0.257185     0.004505
PT558   PT        0.499147    0.017850    0.268348     0.004505
PT559   PT        0.179372    0.113882    0.217591     0.004505
PT560   PT        0.254127    0.075375    0.252652     0.004505
AU561   AU        0.249928    0.112392    0.221014     0.007504
AU562   AU        0.287955    0.111721    0.255580     0.007504
AU563   AU        0.324214    0.075158    0.254939     0.007504
AU564   AU        0.324265    0.111522    0.222738     0.007504
AU565   AU        0.359503    0.076143    0.220102     0.007504
AU566   AU        0.360550    0.109893    0.255537     0.007504
AU567   AU        0.394217    0.075076    0.254083     0.007504
AU568   AU        0.394914    0.111037    0.220631     0.007504
AU569   AU        0.431390    0.075415    0.219857     0.007504
AU570   AU        0.427818    0.113295    0.256465     0.007504
AU571   AU        0.462129    0.076620    0.256437     0.007504
PT572   PT        0.464104    0.110268    0.220762     0.004505
PT573   PT        0.499249    0.075634    0.222937     0.004505
AU574   AU        0.498159    0.113418    0.255415     0.007504
AU575   AU        0.531622    0.077211    0.257486     0.007504
AU576   AU        0.535207    0.111890    0.222538     0.007504
PT577   PT        0.569017    0.112874    0.257517     0.004505
AU578   AU        0.606804    0.073733    0.257856     0.007504
AU579   AU        0.606261    0.109582    0.222045     0.007504
AU580   AU        0.637990    0.111744    0.257241     0.007504
AU581   AU        0.144116    0.183697    0.255846     0.007504
AU582   AU        0.179124    0.144512    0.256511     0.007504
AU583   AU        0.179685    0.180429    0.221183     0.007504
PT584   PT        0.219836    0.148419    0.215472     0.004505
PT585   PT        0.217952    0.182196    0.256442     0.004505
PT586   PT        0.254184    0.149209    0.257803     0.004505
PT587   PT        0.252821    0.183814    0.220176     0.004505
PT588   PT        0.286305    0.146233    0.219776     0.004505
PT589   PT        0.288716    0.182366    0.255966     0.004505
AU590   AU        0.322888    0.148625    0.254143     0.007504
PT591   PT        0.322017    0.183381    0.220070     0.004505
AU592   AU        0.358556    0.149375    0.221723     0.007504
PT593   PT        0.357797    0.184494    0.254942     0.004505
PT594   PT        0.393481    0.148594    0.255650     0.004505
AU595   AU        0.395090    0.183026    0.220944     0.007504
AU596   AU        0.428507    0.144592    0.218593     0.007504
PT597   PT        0.429897    0.183089    0.255930     0.004505
AU598   AU        0.463257    0.147008    0.254252     0.007504
PT599   PT        0.463706    0.183433    0.220890     0.004505
AU600   AU        0.499034    0.148731    0.220036     0.007504
AU601   AU        0.497414    0.185429    0.254553     0.007504
PT602   PT        0.535001    0.146652    0.258230     0.004505
AU603   AU        0.534737    0.183265    0.220591     0.007504
PT604   PT        0.568541    0.146064    0.219902     0.004505
PT605   PT        0.568433    0.183351    0.256001     0.004505
PT606   PT        0.603724    0.146905    0.252710     0.004505
AU607   AU        0.603857    0.183479    0.221441     0.007504
PT608   PT        0.640021    0.148059    0.219002     0.004505
AU609   AU        0.638316    0.182283    0.255542     0.007504
PT610   PT        0.673034    0.148025    0.254749     0.004505
AU611   AU        0.672643    0.184813    0.220231     0.007504
AU612   AU        0.708515    0.182691    0.254906     0.007504
AU613   AU        0.068637    0.257937    0.255553     0.007504
AU614   AU        0.107367    0.218037    0.252930     0.007504
AU615   AU        0.107071    0.254395    0.220766     0.007504
AU616   AU        0.146090    0.218675    0.219663     0.007504
AU617   AU        0.144611    0.254030    0.254068     0.007504
PT618   PT        0.183983    0.218063    0.256889     0.004505
PT619   PT        0.181987    0.255598    0.219798     0.004505
PT620   PT        0.218335    0.217414    0.220272     0.004505
AU621   AU        0.218502    0.252279    0.256267     0.007504
AU622   AU        0.253579    0.218952    0.254325     0.007504
AU623   AU        0.253291    0.254477    0.219949     0.007504
AU624   AU        0.287617    0.218508    0.220924     0.007504
PT625   PT        0.288500    0.252709    0.256071     0.004505
PT626   PT        0.323947    0.217216    0.256274     0.004505
PT627   PT        0.321798    0.254248    0.221990     0.004505
AU628   AU        0.358837    0.218900    0.220814     0.007504
PT629   PT        0.356543    0.254414    0.255808     0.004505
PT630   PT        0.391549    0.217762    0.255369     0.004505
AU631   AU        0.393335    0.254304    0.222151     0.007504
AU632   AU        0.429271    0.218053    0.221881     0.007504
PT633   PT        0.429554    0.252617    0.255827     0.004505
AU634   AU        0.464041    0.219117    0.254722     0.007504
AU635   AU        0.464500    0.254831    0.220804     0.007504
PT636   PT        0.497132    0.218544    0.218962     0.004505
AU637   AU        0.498144    0.253673    0.256126     0.007504
AU638   AU        0.532573    0.219843    0.255723     0.007504
PT639   PT        0.534694    0.254355    0.220785     0.004505
PT640   PT        0.570010    0.219433    0.220013     0.004505
PT641   PT        0.568924    0.253718    0.254936     0.004505
PT642   PT        0.603777    0.220915    0.255310     0.004505
PT643   PT        0.603924    0.254119    0.219862     0.004505
PT644   PT        0.639888    0.219940    0.220296     0.004505
PT645   PT        0.638892    0.253990    0.255900     0.004505
AU646   AU        0.675077    0.219415    0.254422     0.007504
AU647   AU        0.674113    0.253814    0.220228     0.007504
PT648   PT        0.710204    0.219881    0.218050     0.004505
AU649   AU        0.709771    0.253598    0.256529     0.007504
PT650   PT        0.743745    0.218610    0.253645     0.004505
AU651   AU        0.746749    0.253888    0.218593     0.007504
AU652   AU        0.780441    0.251281    0.253211     0.007504
PT653   PT        0.072824    0.325396    0.254499     0.004505
PT654   PT        0.108245    0.290084    0.257295     0.004505
AU655   AU        0.108691    0.323497    0.221263     0.007504
PT656   PT        0.143211    0.287737    0.220577     0.004505
AU657   AU        0.147385    0.324813    0.255346     0.007504
AU658   AU        0.183347    0.288503    0.257374     0.007504
PT659   PT        0.180702    0.322435    0.221823     0.004505
PT660   PT        0.218631    0.289870    0.221838     0.004505
PT661   PT        0.217156    0.323504    0.257403     0.004505
AU662   AU        0.253950    0.290015    0.256857     0.007504
AU663   AU        0.251737    0.324628    0.221506     0.007504
AU664   AU        0.287085    0.290094    0.219646     0.007504
PT665   PT        0.287497    0.324681    0.255984     0.004505
PT666   PT        0.323671    0.289109    0.255605     0.004505
AU667   AU        0.322049    0.323309    0.220245     0.007504
AU668   AU        0.357975    0.288443    0.221822     0.007504
PT669   PT        0.358577    0.323701    0.257666     0.004505
PT670   PT        0.392174    0.288441    0.256149     0.004505
PT671   PT        0.392119    0.323125    0.220476     0.004505
PT672   PT        0.428758    0.288447    0.221443     0.004505
PT673   PT        0.427167    0.322715    0.255758     0.004505
AU674   AU        0.463976    0.288682    0.256481     0.007504
AU675   AU        0.463903    0.324572    0.221979     0.007504
AU676   AU        0.499390    0.289316    0.220526     0.007504
PT677   PT        0.498172    0.323478    0.256878     0.004505
PT678   PT        0.532906    0.288718    0.256179     0.004505
PT679   PT        0.534218    0.323585    0.222436     0.004505
PT680   PT        0.568916    0.289230    0.222242     0.004505
PT681   PT        0.569405    0.323407    0.257606     0.004505
PT682   PT        0.604113    0.289448    0.254584     0.004505
PT683   PT        0.602056    0.323972    0.221643     0.004505
PT684   PT        0.637861    0.287841    0.221390     0.004505
PT685   PT        0.639044    0.325250    0.255834     0.004505
PT686   PT        0.674652    0.289681    0.256414     0.004505
PT687   PT        0.673441    0.323880    0.221115     0.004505
AU688   AU        0.711091    0.288307    0.220833     0.007504
AU689   AU        0.709543    0.323404    0.256308     0.007504
AU690   AU        0.745050    0.288974    0.257364     0.007504
PT691   PT        0.743713    0.322562    0.219736     0.004505
PT692   PT        0.777531    0.323627    0.256502     0.004505
AU693   AU        0.038604    0.359924    0.258060     0.007504
AU694   AU        0.071719    0.363291    0.221423     0.007504
AU695   AU        0.071595    0.396664    0.255659     0.007504
PT696   PT        0.107323    0.360624    0.257244     0.004505
PT697   PT        0.106513    0.396010    0.220809     0.004505
AU698   AU        0.145172    0.360271    0.220995     0.007504
PT699   PT        0.147724    0.392362    0.257347     0.004505
PT700   PT        0.184839    0.358666    0.254554     0.004505
AU701   AU        0.182182    0.393986    0.222728     0.007504
AU702   AU        0.218606    0.357372    0.220171     0.007504
PT703   PT        0.218779    0.394510    0.257234     0.004505
PT704   PT        0.251767    0.358759    0.256621     0.004505
PT705   PT        0.252120    0.392777    0.221319     0.004505
AU706   AU        0.288136    0.360462    0.221771     0.007504
PT707   PT        0.287907    0.395655    0.255462     0.004505
PT708   PT        0.322795    0.357661    0.256728     0.004505
PT709   PT        0.322408    0.393653    0.221066     0.004505
PT710   PT        0.357425    0.359611    0.220551     0.004505
PT711   PT        0.357066    0.393049    0.255479     0.004505
PT712   PT        0.392681    0.358988    0.255576     0.004505
PT713   PT        0.392948    0.393014    0.219613     0.004505
PT714   PT        0.428403    0.358323    0.222377     0.004505
AU715   AU        0.428058    0.391708    0.256344     0.007504
PT716   PT        0.463853    0.357778    0.257143     0.004505
AU717   AU        0.462110    0.392982    0.221861     0.007504
AU718   AU        0.498956    0.357948    0.221097     0.007504
PT719   PT        0.497310    0.393299    0.256210     0.004505
AU720   AU        0.534038    0.359621    0.256169     0.007504
PT721   PT        0.533996    0.392739    0.220853     0.004505
PT722   PT        0.569034    0.359258    0.220610     0.004505
PT723   PT        0.567977    0.394509    0.256496     0.004505
PT724   PT        0.605463    0.358847    0.254905     0.004505
PT725   PT        0.603670    0.395324    0.220289     0.004505
PT726   PT        0.640295    0.358261    0.220647     0.004505
PT727   PT        0.640650    0.394932    0.255200     0.004505
AU728   AU        0.674228    0.358964    0.256360     0.007504
AU729   AU        0.676154    0.394276    0.220200     0.007504
AU730   AU        0.708703    0.358084    0.221291     0.007504
PT731   PT        0.709817    0.393601    0.255542     0.004505
PT732   PT        0.743879    0.359724    0.256502     0.004505
AU733   AU        0.746068    0.393005    0.219269     0.007504
AU734   AU        0.779844    0.358322    0.220189     0.007504
PT735   PT        0.780496    0.395466    0.256489     0.004505
AU736   AU        0.816941    0.358852    0.254956     0.007504
AU737   AU        0.035616    0.428197    0.254633     0.007504
PT738   PT        0.069720    0.433268    0.220955     0.004505
AU739   AU        0.074355    0.466172    0.255439     0.007504
AU740   AU        0.110462    0.429546    0.256414     0.007504
PT741   PT        0.107880    0.463056    0.218565     0.004505
PT742   PT        0.146112    0.428319    0.222086     0.004505
AU743   AU        0.146109    0.464730    0.254099     0.007504
PT744   PT        0.182456    0.429650    0.257706     0.004505
AU745   AU        0.183793    0.464748    0.220328     0.007504
AU746   AU        0.217719    0.429750    0.222051     0.007504
AU747   AU        0.219255    0.465263    0.255920     0.007504
PT748   PT        0.254395    0.429368    0.254633     0.004505
AU749   AU        0.254666    0.465155    0.220770     0.007504
AU750   AU        0.287496    0.428865    0.220199     0.007504
PT751   PT        0.288489    0.463941    0.257817     0.004505
AU752   AU        0.321187    0.430088    0.254757     0.007504
PT753   PT        0.322507    0.464164    0.220311     0.004505
AU754   AU        0.357543    0.431048    0.222042     0.007504
AU755   AU        0.357494    0.464802    0.254731     0.007504
PT756   PT        0.392085    0.426514    0.257234     0.004505
AU757   AU        0.393964    0.464568    0.222158     0.007504
PT758   PT        0.427947    0.427987    0.221697     0.004505
PT759   PT        0.427793    0.462954    0.254985     0.004505
AU760   AU        0.462157    0.429122    0.256025     0.007504
PT761   PT        0.463499    0.463971    0.220658     0.004505
PT762   PT        0.498760    0.428709    0.223024     0.004505
PT763   PT        0.498738    0.464208    0.256810     0.004505
AU764   AU        0.533137    0.428514    0.256990     0.007504
PT765   PT        0.533965    0.464346    0.222943     0.004505
PT766   PT        0.569313    0.430209    0.220983     0.004505
PT767   PT        0.568914    0.463080    0.255088     0.004505
PT768   PT        0.604000    0.429790    0.256858     0.004505
AU769   AU        0.604357    0.462987    0.221610     0.007504
PT770   PT        0.638768    0.429901    0.220970     0.004505
PT771   PT        0.639173    0.463824    0.255384     0.004505
PT772   PT        0.675467    0.428446    0.256230     0.004505
AU773   AU        0.673593    0.463655    0.221119     0.007504
AU774   AU        0.710208    0.428986    0.220623     0.007504
AU775   AU        0.707938    0.463727    0.255540     0.007504
PT776   PT        0.743986    0.427377    0.255976     0.004505
AU777   AU        0.746092    0.462446    0.221825     0.007504
AU778   AU        0.781698    0.425883    0.220020     0.007504
AU779   AU        0.785316    0.464020    0.254330     0.007504
AU780   AU        0.816608    0.430310    0.257323     0.007504
AU781   AU        0.036764    0.500109    0.256766     0.007504
AU782   AU        0.072507    0.501396    0.221756     0.007504
PT783   PT        0.071757    0.535064    0.255957     0.004505
PT784   PT        0.109023    0.502598    0.255573     0.004505
PT785   PT        0.106333    0.537345    0.217801     0.004505
AU786   AU        0.142201    0.501588    0.219688     0.007504
PT787   PT        0.146650    0.537756    0.255178     0.004505
PT788   PT        0.183033    0.498379    0.257025     0.004505
PT789   PT        0.181473    0.536066    0.221059     0.004505
AU790   AU        0.218121    0.500510    0.220829     0.007504
PT791   PT        0.218451    0.532163    0.255675     0.004505
PT792   PT        0.253317    0.499705    0.257149     0.004505
AU793   AU        0.253254    0.535478    0.221500     0.007504
PT794   PT        0.288394    0.501377    0.220395     0.004505
AU795   AU        0.287232    0.533701    0.256467     0.007504
PT796   PT        0.322275    0.499182    0.256610     0.004505
AU797   AU        0.323874    0.534600    0.219675     0.007504
AU798   AU        0.357929    0.499881    0.220691     0.007504
AU799   AU        0.358712    0.533676    0.256094     0.007504
PT800   PT        0.395093    0.498203    0.255238     0.004505
PT801   PT        0.393229    0.534100    0.221882     0.004505
PT802   PT        0.428546    0.498833    0.220405     0.004505
PT803   PT        0.428992    0.532729    0.257555     0.004505
PT804   PT        0.463771    0.497391    0.256780     0.004505
PT805   PT        0.463481    0.533620    0.222022     0.004505
PT806   PT        0.498808    0.498425    0.222772     0.004505
AU807   AU        0.497681    0.533731    0.255704     0.007504
PT808   PT        0.534361    0.499158    0.256972     0.004505
PT809   PT        0.534857    0.534663    0.222567     0.004505
PT810   PT        0.569863    0.500120    0.221458     0.004505
PT811   PT        0.569466    0.533856    0.257198     0.004505
AU812   AU        0.604841    0.498512    0.256692     0.007504
PT813   PT        0.603122    0.534200    0.222768     0.004505
PT814   PT        0.639312    0.499195    0.221903     0.004505
PT815   PT        0.638020    0.533839    0.255521     0.004505
PT816   PT        0.674121    0.499339    0.256792     0.004505
PT817   PT        0.674852    0.532789    0.221375     0.004505
AU818   AU        0.709279    0.498022    0.220219     0.007504
AU819   AU        0.710008    0.532618    0.256042     0.007504
AU820   AU        0.745173    0.499764    0.255318     0.007504
AU821   AU        0.745724    0.535239    0.220171     0.007504
PT822   PT        0.780486    0.497953    0.219281     0.004505
AU823   AU        0.780504    0.535963    0.257748     0.007504
AU824   AU        0.819204    0.502591    0.253578     0.007504
AU825   AU        0.073150    0.604591    0.254065     0.007504
PT826   PT        0.109926    0.570215    0.257445     0.004505
PT827   PT        0.109741    0.608540    0.221406     0.004505
AU828   AU        0.143066    0.572037    0.219483     0.007504
AU829   AU        0.145007    0.608301    0.255718     0.007504
AU830   AU        0.184123    0.568826    0.257642     0.007504
AU831   AU        0.181127    0.603260    0.222029     0.007504
AU832   AU        0.217372    0.567971    0.222152     0.007504
PT833   PT        0.218513    0.603448    0.256981     0.004505
AU834   AU        0.254764    0.568642    0.254704     0.007504
PT835   PT        0.250471    0.604536    0.221327     0.004505
AU836   AU        0.286861    0.569630    0.219082     0.007504
PT837   PT        0.288560    0.604840    0.254763     0.004505
PT838   PT        0.323583    0.566858    0.256287     0.004505
AU839   AU        0.322932    0.604849    0.221164     0.007504
PT840   PT        0.357555    0.570539    0.221191     0.004505
PT841   PT        0.356972    0.604507    0.256589     0.004505
AU842   AU        0.390852    0.569218    0.256984     0.007504
PT843   PT        0.393607    0.603900    0.222562     0.004505
PT844   PT        0.428250    0.569507    0.222670     0.004505
AU845   AU        0.426782    0.605125    0.256146     0.007504
PT846   PT        0.464930    0.569508    0.255367     0.004505
AU847   AU        0.463258    0.604757    0.221847     0.007504
PT848   PT        0.500511    0.570142    0.220282     0.004505
AU849   AU        0.499445    0.603142    0.257897     0.007504
AU850   AU        0.533292    0.567694    0.256081     0.007504
AU851   AU        0.533323    0.605906    0.221977     0.007504
PT852   PT        0.568527    0.572312    0.220948     0.004505
PT853   PT        0.568584    0.603034    0.256795     0.004505
AU854   AU        0.604483    0.570321    0.257051     0.007504
PT855   PT        0.605467    0.603561    0.222565     0.004505
PT856   PT        0.638280    0.567320    0.221111     0.004505
PT857   PT        0.639880    0.602870    0.258428     0.004505
AU858   AU        0.675477    0.568609    0.256368     0.007504
AU859   AU        0.674259    0.606080    0.221725     0.007504
PT860   PT        0.710854    0.566490    0.219800     0.004505
PT861   PT        0.709631    0.603494    0.256639     0.004505
AU862   AU        0.743734    0.568348    0.256363     0.007504
AU863   AU        0.746631    0.603968    0.221099     0.007504
PT864   PT        0.778559    0.607410    0.257262     0.004505
PT865   PT        0.108242    0.645118    0.257795     0.004505
AU866   AU        0.144466    0.642634    0.219534     0.007504
AU867   AU        0.145185    0.679546    0.254895     0.007504
AU868   AU        0.180167    0.641717    0.256303     0.007504
PT869   PT        0.180582    0.680916    0.220851     0.004505
PT870   PT        0.217018    0.638562    0.222446     0.004505
AU871   AU        0.216638    0.673707    0.254966     0.007504
PT872   PT        0.252681    0.638947    0.256890     0.004505
AU873   AU        0.251804    0.675114    0.221859     0.007504
AU874   AU        0.287297    0.639902    0.221777     0.007504
AU875   AU        0.287673    0.672874    0.255657     0.007504
AU876   AU        0.322876    0.640291    0.255681     0.007504
AU877   AU        0.322470    0.674187    0.222156     0.007504
PT878   PT        0.358716    0.640236    0.222214     0.004505
AU879   AU        0.357053    0.677023    0.256316     0.007504
PT880   PT        0.392404    0.641079    0.256684     0.004505
AU881   AU        0.392224    0.675301    0.219692     0.007504
AU882   AU        0.429749    0.640907    0.220858     0.007504
PT883   PT        0.428425    0.674256    0.257544     0.004505
AU884   AU        0.462504    0.638275    0.255826     0.007504
PT885   PT        0.464128    0.675573    0.222490     0.004505
AU886   AU        0.497671    0.638292    0.222765     0.007504
AU887   AU        0.498525    0.674298    0.255245     0.007504
AU888   AU        0.533365    0.638033    0.258393     0.007504
PT889   PT        0.532895    0.673438    0.221703     0.004505
AU890   AU        0.572128    0.639239    0.221140     0.007504
AU891   AU        0.568583    0.674903    0.256234     0.007504
PT892   PT        0.604508    0.637126    0.257239     0.004505
AU893   AU        0.603142    0.676650    0.222204     0.007504
PT894   PT        0.638239    0.637956    0.221515     0.004505
PT895   PT        0.638768    0.673757    0.256837     0.004505
AU896   AU        0.673353    0.640251    0.256647     0.007504
AU897   AU        0.673655    0.680211    0.221624     0.007504
PT898   PT        0.712859    0.640585    0.219798     0.004505
PT899   PT        0.709390    0.679701    0.256547     0.004505
AU900   AU        0.743465    0.640062    0.257673     0.007504
AU901   AU        0.184385    0.754803    0.213529     0.007504
AU902   AU        0.213814    0.715936    0.223060     0.007504
AU903   AU        0.215257    0.752932    0.256861     0.007504
AU904   AU        0.252521    0.711873    0.255533     0.007504
PT905   PT        0.252341    0.749581    0.222753     0.004505
AU906   AU        0.286918    0.713878    0.221502     0.007504
PT907   PT        0.286730    0.749936    0.257232     0.004505
PT908   PT        0.320968    0.711341    0.257013     0.004505
PT909   PT        0.320649    0.750007    0.220419     0.004505
AU910   AU        0.357465    0.711123    0.220332     0.007504
AU911   AU        0.355430    0.745510    0.253275     0.007504
AU912   AU        0.393378    0.711382    0.254073     0.007504
AU913   AU        0.392578    0.746382    0.218678     0.007504
AU914   AU        0.428444    0.709762    0.220369     0.007504
AU915   AU        0.425494    0.748679    0.252704     0.007504
PT916   PT        0.461138    0.710850    0.255145     0.004505
AU917   AU        0.461669    0.748984    0.220873     0.007504
PT918   PT        0.499671    0.713823    0.217956     0.004505
PT919   PT        0.496994    0.745522    0.253902     0.004505
AU920   AU        0.535285    0.709785    0.255037     0.007504
PT921   PT        0.534602    0.750305    0.220396     0.004505
AU922   AU        0.567736    0.714737    0.219252     0.007504
AU923   AU        0.572101    0.750723    0.253284     0.007504
PT924   PT        0.603711    0.712604    0.253220     0.004505
PT925   PT        0.606732    0.751591    0.216964     0.004505
AU926   AU        0.638303    0.712997    0.218469     0.007504
AU927   AU        0.644247    0.750260    0.254159     0.007504
AU928   AU        0.673033    0.712208    0.256085     0.007504
AU929   AU        0.251342    0.787624    0.259227     0.007504
AU930   AU        0.322994    0.784315    0.258297     0.007504
PT931   PT        0.356522    0.782939    0.219005     0.004505
PT932   PT        0.354597    0.820671    0.254881     0.004505
PT933   PT        0.390284    0.784870    0.254442     0.004505
PT934   PT        0.428517    0.787651    0.221768     0.004505
AU935   AU        0.435298    0.862271    0.290701     0.007504
AU936   AU        0.464352    0.784373    0.255046     0.007504
AU937   AU        0.497053    0.784833    0.221000     0.007504
PT938   PT        0.498380    0.819892    0.255252     0.004505
AU939   AU        0.534461    0.785095    0.253334     0.007504
AU940   AU        0.601865    0.790282    0.255933     0.007504
PT941   PT        0.286565    0.038593    0.320585     0.004505
AU942   AU        0.325933    0.039243    0.291646     0.007504
PT943   PT        0.358737    0.040484    0.329427     0.004505
AU944   AU        0.394980    0.039999    0.292175     0.007504
PT945   PT        0.427265    0.038471    0.329479     0.004505
PT946   PT        0.461886    0.039159    0.292562     0.004505
AU947   AU        0.498964    0.042337    0.328245     0.007504
PT948   PT        0.534926    0.040821    0.292162     0.004505
AU949   AU        0.567765    0.039456    0.327663     0.007504
PT950   PT        0.180495    0.109770    0.293702     0.004505
AU951   AU        0.221106    0.076586    0.290571     0.007504
AU952   AU        0.251764    0.076310    0.327236     0.007504
AU953   AU        0.253145    0.112801    0.290296     0.007504
PT954   PT        0.290098    0.077668    0.289679     0.004505
PT955   PT        0.286823    0.112631    0.327295     0.004505
AU956   AU        0.322325    0.076611    0.325682     0.007504
AU957   AU        0.325269    0.112645    0.291386     0.007504
PT958   PT        0.359368    0.075620    0.292875     0.004505
AU959   AU        0.359381    0.113288    0.324861     0.007504
AU960   AU        0.394802    0.077114    0.328543     0.007504
AU961   AU        0.393369    0.109836    0.291652     0.007504
PT962   PT        0.428042    0.075262    0.288871     0.004505
AU963   AU        0.428379    0.111368    0.326627     0.007504
AU964   AU        0.461010    0.076813    0.327018     0.007504
PT965   PT        0.462831    0.114188    0.293012     0.004505
PT966   PT        0.498749    0.075753    0.294001     0.004505
PT967   PT        0.498352    0.113938    0.327151     0.004505
PT968   PT        0.536995    0.076863    0.327695     0.004505
AU969   AU        0.531791    0.111201    0.292534     0.007504
AU970   AU        0.570100    0.077102    0.289849     0.007504
AU971   AU        0.570047    0.110984    0.326068     0.007504
AU972   AU        0.604478    0.074381    0.325887     0.007504
PT973   PT        0.604485    0.112549    0.292480     0.004505
PT974   PT        0.640258    0.112043    0.326533     0.004505
AU975   AU        0.674963    0.109237    0.291108     0.007504
PT976   PT        0.106412    0.183989    0.291396     0.004505
AU977   AU        0.144888    0.148396    0.291081     0.007504
PT978   PT        0.144258    0.182747    0.326317     0.004505
PT979   PT        0.179185    0.146908    0.325167     0.004505
PT980   PT        0.182568    0.180159    0.290124     0.004505
PT981   PT        0.216110    0.147860    0.291866     0.004505
AU982   AU        0.216720    0.184083    0.325184     0.007504
PT983   PT        0.252755    0.147746    0.325752     0.004505
AU984   AU        0.254851    0.183429    0.291204     0.007504
PT985   PT        0.290102    0.148775    0.291085     0.004505
PT986   PT        0.288134    0.183754    0.327064     0.004505
AU987   AU        0.322430    0.149985    0.326681     0.007504
PT988   PT        0.323978    0.183296    0.290904     0.004505
PT989   PT        0.359301    0.148701    0.289718     0.004505
PT990   PT        0.357483    0.183833    0.326411     0.004505
AU991   AU        0.395243    0.148725    0.326053     0.007504
PT992   PT        0.392983    0.184066    0.290867     0.004505
AU993   AU        0.430673    0.148544    0.290804     0.007504
PT994   PT        0.429639    0.184356    0.327257     0.004505
AU995   AU        0.464854    0.148540    0.325375     0.007504
PT996   PT        0.464523    0.182962    0.290232     0.004505
AU997   AU        0.498934    0.148302    0.290156     0.007504
AU998   AU        0.499387    0.183119    0.326864     0.007504
PT999   PT        0.535925    0.148776    0.324626     0.004505
AU1000   AU        0.531867    0.184292    0.289192     0.007504
AU1001   AU        0.571092    0.146892    0.289856     0.007504
PT1002   PT        0.569434    0.182380    0.325167     0.004505
PT1003   PT        0.603331    0.148390    0.328631     0.004505
PT1004   PT        0.602889    0.185669    0.290398     0.004505
PT1005   PT        0.638235    0.147631    0.290817     0.004505
PT1006   PT        0.639606    0.183168    0.324267     0.004505
AU1007   AU        0.676550    0.146655    0.326356     0.007504
AU1008   AU        0.674856    0.182594    0.291899     0.007504
AU1009   AU        0.714613    0.144889    0.290109     0.007504
PT1010   PT        0.709677    0.182238    0.327668     0.004505
PT1011   PT        0.748598    0.182623    0.286423     0.004505
PT1012   PT        0.077843    0.256035    0.324782     0.004505
AU1013   AU        0.113714    0.219494    0.326087     0.007504
AU1014   AU        0.110758    0.254104    0.289263     0.007504
AU1015   AU        0.145891    0.218230    0.288487     0.007504
PT1016   PT        0.148198    0.253952    0.322619     0.004505
AU1017   AU        0.181760    0.217806    0.323931     0.007504
AU1018   AU        0.183723    0.254067    0.290021     0.007504
AU1019   AU        0.219784    0.217100    0.291178     0.007504
AU1020   AU        0.216633    0.253263    0.326205     0.007504
PT1021   PT        0.253710    0.218807    0.328083     0.004505
AU1022   AU        0.252495    0.254314    0.292705     0.007504
AU1023   AU        0.287780    0.217216    0.289688     0.007504
AU1024   AU        0.288762    0.251990    0.326545     0.007504
PT1025   PT        0.322317    0.217650    0.325078     0.004505
PT1026   PT        0.324218    0.254263    0.291049     0.004505
AU1027   AU        0.357160    0.218864    0.291356     0.007504
AU1028   AU        0.357874    0.253512    0.325679     0.007504
PT1029   PT        0.393278    0.219424    0.326408     0.004505
PT1030   PT        0.391470    0.252856    0.289544     0.004505
AU1031   AU        0.429418    0.217297    0.291376     0.007504
PT1032   PT        0.427535    0.252864    0.327113     0.004505
AU1033   AU        0.465460    0.217980    0.326455     0.007504
PT1034   PT        0.463629    0.254219    0.292432     0.004505
PT1035   PT        0.498554    0.218163    0.291055     0.004505
AU1036   AU        0.498457    0.252719    0.325718     0.007504
AU1037   AU        0.533835    0.217452    0.324922     0.007504
AU1038   AU        0.533409    0.252667    0.291682     0.007504
AU1039   AU        0.568858    0.220682    0.289966     0.007504
PT1040   PT        0.569212    0.254177    0.325733     0.004505
PT1041   PT        0.603152    0.221250    0.326125     0.004505
PT1042   PT        0.604564    0.255766    0.290784     0.004505
AU1043   AU        0.640842    0.217481    0.291504     0.007504
PT1044   PT        0.638147    0.254181    0.325873     0.004505
PT1045   PT        0.673652    0.219802    0.325799     0.004505
AU1046   AU        0.674502    0.253193    0.290143     0.007504
AU1047   AU        0.710170    0.216207    0.291101     0.007504
AU1048   AU        0.708295    0.253970    0.326760     0.007504
PT1049   PT        0.743765    0.217834    0.325588     0.004505
AU1050   AU        0.744268    0.253913    0.291929     0.007504
AU1051   AU        0.779551    0.252205    0.323385     0.007504
AU1052   AU        0.038570    0.287275    0.325270     0.007504
AU1053   AU        0.039820    0.326887    0.292657     0.007504
PT1054   PT        0.072946    0.291515    0.290867     0.004505
AU1055   AU        0.075238    0.327014    0.327723     0.007504
PT1056   PT        0.112808    0.290577    0.324874     0.004505
PT1057   PT        0.112326    0.325062    0.291348     0.004505
PT1058   PT        0.146132    0.290091    0.290183     0.004505
AU1059   AU        0.148065    0.323019    0.326020     0.007504
PT1060   PT        0.182227    0.289277    0.326533     0.004505
AU1061   AU        0.182714    0.324054    0.291349     0.007504
AU1062   AU        0.218360    0.290072    0.290332     0.007504
PT1063   PT        0.218656    0.323396    0.325208     0.004505
PT1064   PT        0.252659    0.287897    0.328230     0.004505
PT1065   PT        0.253721    0.323075    0.291777     0.004505
PT1066   PT        0.288232    0.289307    0.290855     0.004505
PT1067   PT        0.287174    0.323491    0.326803     0.004505
PT1068   PT        0.324073    0.289375    0.325637     0.004505
PT1069   PT        0.321745    0.324717    0.291020     0.004505
PT1070   PT        0.358515    0.289434    0.290343     0.004505
PT1071   PT        0.358793    0.322354    0.326597     0.004505
AU1072   AU        0.393897    0.287689    0.324744     0.007504
PT1073   PT        0.393796    0.324320    0.291288     0.004505
AU1074   AU        0.427642    0.288351    0.290514     0.007504
PT1075   PT        0.427652    0.322964    0.324792     0.004505
PT1076   PT        0.463245    0.288044    0.326841     0.004505
PT1077   PT        0.463411    0.323255    0.291159     0.004505
PT1078   PT        0.498612    0.288596    0.291033     0.004505
PT1079   PT        0.497777    0.323543    0.326126     0.004505
PT1080   PT        0.535191    0.287617    0.326670     0.004505
PT1081   PT        0.535042    0.325108    0.291048     0.004505
PT1082   PT        0.568678    0.288001    0.289725     0.004505
PT1083   PT        0.568805    0.324206    0.326413     0.004505
PT1084   PT        0.602893    0.289635    0.325450     0.004505
AU1085   AU        0.603890    0.323672    0.291406     0.007504
AU1086   AU        0.638009    0.288687    0.290707     0.007504
PT1087   PT        0.638019    0.323835    0.326010     0.004505
AU1088   AU        0.673409    0.290027    0.325838     0.007504
PT1089   PT        0.672029    0.324380    0.291003     0.004505
PT1090   PT        0.708987    0.289956    0.290317     0.004505
AU1091   AU        0.708384    0.324669    0.325858     0.007504
AU1092   AU        0.745928    0.287954    0.325987     0.007504
AU1093   AU        0.744377    0.323052    0.290769     0.007504
AU1094   AU        0.779484    0.288170    0.288702     0.007504
PT1095   PT        0.780735    0.323694    0.328757     0.004505
AU1096   AU        0.814472    0.286690    0.323007     0.007504
PT1097   PT        0.814809    0.323937    0.287990     0.004505
AU1098   AU        0.038063    0.358914    0.329919     0.007504
PT1099   PT        0.036561    0.393997    0.292671     0.004505
PT1100   PT        0.071942    0.361254    0.292179     0.004505
PT1101   PT        0.071032    0.395606    0.327179     0.004505
AU1102   AU        0.110501    0.360020    0.326809     0.007504
AU1103   AU        0.107661    0.394923    0.291921     0.007504
AU1104   AU        0.147054    0.358929    0.292397     0.007504
PT1105   PT        0.147368    0.392758    0.325950     0.004505
AU1106   AU        0.182441    0.358236    0.325420     0.007504
AU1107   AU        0.182681    0.392993    0.291581     0.007504
AU1108   AU        0.219649    0.357921    0.290965     0.007504
PT1109   PT        0.217769    0.393296    0.327372     0.004505
AU1110   AU        0.254340    0.359413    0.326483     0.007504
AU1111   AU        0.252899    0.394909    0.290913     0.007504
AU1112   AU        0.288138    0.360597    0.289743     0.007504
PT1113   PT        0.289519    0.393036    0.325121     0.004505
PT1114   PT        0.324039    0.357604    0.326734     0.004505
PT1115   PT        0.323452    0.393416    0.290579     0.004505
PT1116   PT        0.358637    0.358008    0.291051     0.004505
PT1117   PT        0.356567    0.393224    0.325929     0.004505
AU1118   AU        0.393976    0.359761    0.327412     0.007504
AU1119   AU        0.394095    0.392949    0.292002     0.007504
PT1120   PT        0.427579    0.357855    0.290018     0.004505
PT1121   PT        0.428639    0.395391    0.326442     0.004505
PT1122   PT        0.462051    0.358118    0.326113     0.004505
PT1123   PT        0.462272    0.395203    0.291462     0.004505
PT1124   PT        0.500652    0.359998    0.291647     0.004505
PT1125   PT        0.497175    0.394874    0.325758     0.004505
PT1126   PT        0.534623    0.360021    0.326457     0.004505
PT1127   PT        0.535354    0.394168    0.291365     0.004505
AU1128   AU        0.569420    0.358634    0.292083     0.007504
PT1129   PT        0.568254    0.394193    0.325699     0.004505
PT1130   PT        0.603339    0.359235    0.326166     0.004505
AU1131   AU        0.602862    0.393343    0.290307     0.007504
AU1132   AU        0.639570    0.360719    0.290744     0.007504
PT1133   PT        0.638954    0.394586    0.326282     0.004505
PT1134   PT        0.674380    0.358959    0.326623     0.004505
AU1135   AU        0.675289    0.393857    0.289093     0.007504
AU1136   AU        0.710173    0.358913    0.289754     0.007504
AU1137   AU        0.708856    0.394270    0.326488     0.007504
AU1138   AU        0.744484    0.359520    0.325722     0.007504
PT1139   PT        0.745085    0.393375    0.293114     0.004505
AU1140   AU        0.780405    0.356974    0.291676     0.007504
AU1141   AU        0.780674    0.394924    0.326417     0.007504
PT1142   PT        0.816319    0.355734    0.324139     0.004505
AU1143   AU        0.812886    0.393457    0.291022     0.007504
PT1144   PT        0.003022    0.428015    0.294906     0.004505
AU1145   AU        0.037285    0.461929    0.288636     0.007504
AU1146   AU        0.071469    0.428581    0.289519     0.007504
PT1147   PT        0.075710    0.464969    0.326774     0.004505
AU1148   AU        0.112309    0.429154    0.325659     0.007504
AU1149   AU        0.109514    0.465046    0.291819     0.007504
PT1150   PT        0.147421    0.428984    0.288867     0.004505
AU1151   AU        0.146186    0.464598    0.327312     0.007504
PT1152   PT        0.181624    0.427536    0.325988     0.004505
AU1153   AU        0.181342    0.463489    0.290776     0.007504
PT1154   PT        0.217924    0.430393    0.289732     0.004505
PT1155   PT        0.216538    0.462160    0.326237     0.004505
PT1156   PT        0.254088    0.428995    0.325537     0.004505
AU1157   AU        0.252314    0.464904    0.291353     0.007504
PT1158   PT        0.287463    0.429021    0.291202     0.004505
PT1159   PT        0.288007    0.465454    0.325228     0.004505
PT1160   PT        0.321545    0.429030    0.326792     0.004505
PT1161   PT        0.323455    0.465763    0.291420     0.004505
PT1162   PT        0.356127    0.428435    0.291097     0.004505
AU1163   AU        0.358417    0.462636    0.325683     0.007504
PT1164   PT        0.394129    0.428804    0.325615     0.004505
PT1165   PT        0.391400    0.463266    0.289920     0.004505
PT1166   PT        0.427367    0.430801    0.291344     0.004505
AU1167   AU        0.427049    0.463070    0.326178     0.007504
AU1168   AU        0.463677    0.429402    0.327955     0.007504
PT1169   PT        0.463392    0.463042    0.291491     0.004505
PT1170   PT        0.498780    0.428810    0.291052     0.004505
PT1171   PT        0.500612    0.463699    0.327420     0.004505
PT1172   PT        0.534403    0.428207    0.327070     0.004505
PT1173   PT        0.533630    0.462657    0.291075     0.004505
PT1174   PT        0.569713    0.429296    0.291544     0.004505
PT1175   PT        0.568613    0.462842    0.325597     0.004505
PT1176   PT        0.603603    0.429349    0.325887     0.004505
PT1177   PT        0.603171    0.464709    0.290588     0.004505
PT1178   PT        0.638603    0.428400    0.291469     0.004505
PT1179   PT        0.639198    0.463479    0.324177     0.004505
AU1180   AU        0.675179    0.427833    0.325652     0.007504
PT1181   PT        0.673817    0.463886    0.289891     0.004505
AU1182   AU        0.711012    0.427532    0.290735     0.007504
PT1183   PT        0.707555    0.463702    0.325782     0.004505
PT1184   PT        0.745692    0.428422    0.326439     0.004505
PT1185   PT        0.742952    0.464126    0.291698     0.004505
AU1186   AU        0.782109    0.430454    0.293389     0.007504
PT1187   PT        0.782436    0.464867    0.324975     0.004505
PT1188   PT        0.819822    0.433409    0.325831     0.004505
PT1189   PT        0.821227    0.469361    0.289299     0.004505
AU1190   AU        0.037259    0.499665    0.328724     0.007504
AU1191   AU        0.037757    0.535451    0.291464     0.007504
AU1192   AU        0.074249    0.499364    0.293987     0.007504
AU1193   AU        0.075401    0.534312    0.327546     0.007504
PT1194   PT        0.113629    0.500315    0.327680     0.004505
PT1195   PT        0.109195    0.533854    0.290087     0.004505
AU1196   AU        0.144285    0.499762    0.289955     0.007504
AU1197   AU        0.145277    0.534381    0.326772     0.007504
PT1198   PT        0.183951    0.499450    0.326437     0.004505
AU1199   AU        0.181766    0.533213    0.291131     0.007504
PT1200   PT        0.219296    0.499171    0.292458     0.004505
AU1201   AU        0.217945    0.533599    0.327012     0.007504
PT1202   PT        0.251643    0.498946    0.327244     0.004505
AU1203   AU        0.251382    0.535647    0.291516     0.007504
AU1204   AU        0.287196    0.500545    0.291858     0.007504
AU1205   AU        0.287403    0.534610    0.326734     0.007504
PT1206   PT        0.323993    0.498859    0.326560     0.004505
PT1207   PT        0.322247    0.533613    0.291500     0.004505
PT1208   PT        0.357924    0.500658    0.290648     0.004505
PT1209   PT        0.358147    0.533968    0.326356     0.004505
AU1210   AU        0.392787    0.498564    0.325856     0.007504
PT1211   PT        0.392131    0.532495    0.291627     0.004505
AU1212   AU        0.428376    0.498323    0.292363     0.007504
AU1213   AU        0.428156    0.534719    0.326610     0.007504
PT1214   PT        0.461824    0.497845    0.327099     0.004505
AU1215   AU        0.463633    0.534134    0.290811     0.007504
PT1216   PT        0.498264    0.499167    0.290693     0.004505
PT1217   PT        0.498848    0.533215    0.327252     0.004505
PT1218   PT        0.533731    0.498726    0.327027     0.004505
PT1219   PT        0.533586    0.533104    0.291099     0.004505
PT1220   PT        0.569181    0.497771    0.291358     0.004505
PT1221   PT        0.569774    0.533322    0.326155     0.004505
PT1222   PT        0.603691    0.497501    0.326497     0.004505
PT1223   PT        0.603106    0.532628    0.292071     0.004505
PT1224   PT        0.638990    0.498164    0.291050     0.004505
PT1225   PT        0.636390    0.532393    0.327392     0.004505
PT1226   PT        0.672723    0.498332    0.326304     0.004505
AU1227   AU        0.674197    0.534574    0.290141     0.007504
PT1228   PT        0.707886    0.498326    0.290429     0.004505
AU1229   AU        0.708239    0.531056    0.326575     0.007504
PT1230   PT        0.744704    0.497463    0.327965     0.004505
PT1231   PT        0.744227    0.534115    0.291840     0.004505
PT1232   PT        0.782046    0.499290    0.289598     0.004505
AU1233   AU        0.779108    0.534278    0.325980     0.007504
PT1234   PT        0.817566    0.500551    0.325000     0.004505
PT1235   PT        0.819069    0.536907    0.290427     0.004505
AU1236   AU        0.037694    0.570451    0.326507     0.007504
PT1237   PT        0.071710    0.572035    0.292525     0.004505
AU1238   AU        0.074578    0.607982    0.325854     0.007504
PT1239   PT        0.110053    0.570909    0.325647     0.004505
AU1240   AU        0.109750    0.605646    0.289852     0.007504
PT1241   PT        0.146781    0.570434    0.292242     0.004505
PT1242   PT        0.146341    0.605170    0.326556     0.004505
AU1243   AU        0.182007    0.568960    0.327086     0.007504
AU1244   AU        0.181586    0.604099    0.290449     0.007504
AU1245   AU        0.217047    0.569542    0.291914     0.007504
AU1246   AU        0.217370    0.606376    0.328261     0.007504
PT1247   PT        0.252122    0.568751    0.325321     0.004505
PT1248   PT        0.252434    0.604072    0.292047     0.004505
AU1249   AU        0.289039    0.569805    0.290342     0.007504
AU1250   AU        0.287993    0.604934    0.325463     0.007504
PT1251   PT        0.323035    0.570075    0.326981     0.004505
PT1252   PT        0.322398    0.605414    0.290350     0.004505
PT1253   PT        0.357223    0.569257    0.292038     0.004505
PT1254   PT        0.359119    0.601417    0.327692     0.004505
PT1255   PT        0.393563    0.569230    0.324961     0.004505
PT1256   PT        0.392555    0.603567    0.291373     0.004505
AU1257   AU        0.427977    0.569168    0.290154     0.007504
PT1258   PT        0.428229    0.604036    0.325736     0.004505
PT1259   PT        0.461825    0.568978    0.325774     0.004505
PT1260   PT        0.464507    0.603865    0.292329     0.004505
PT1261   PT        0.499147    0.567471    0.291612     0.004505
PT1262   PT        0.498285    0.602110    0.326839     0.004505
AU1263   AU        0.533748    0.568580    0.327324     0.007504
PT1264   PT        0.533848    0.602085    0.291040     0.004505
PT1265   PT        0.571334    0.568921    0.291237     0.004505
PT1266   PT        0.569240    0.602748    0.326206     0.004505
PT1267   PT        0.604643    0.570556    0.327593     0.004505
PT1268   PT        0.606092    0.603498    0.292133     0.004505
PT1269   PT        0.637680    0.568545    0.291880     0.004505
PT1270   PT        0.640152    0.605196    0.327188     0.004505
PT1271   PT        0.673396    0.569253    0.326470     0.004505
PT1272   PT        0.673731    0.603514    0.291951     0.004505
AU1273   AU        0.709614    0.569123    0.292072     0.007504
PT1274   PT        0.707569    0.604520    0.326799     0.004505
PT1275   PT        0.743297    0.567445    0.327223     0.004505
AU1276   AU        0.744818    0.604942    0.293131     0.007504
AU1277   AU        0.779951    0.572408    0.291474     0.007504
PT1278   PT        0.782509    0.609972    0.325168     0.004505
AU1279   AU        0.816421    0.569364    0.325050     0.007504
AU1280   AU        0.107705    0.643194    0.324888     0.007504
PT1281   PT        0.109140    0.679852    0.290860     0.004505
AU1282   AU        0.145152    0.641156    0.292288     0.007504
AU1283   AU        0.144322    0.677353    0.324953     0.007504
AU1284   AU        0.180760    0.639433    0.327395     0.007504
AU1285   AU        0.181292    0.673593    0.290620     0.007504
AU1286   AU        0.217755    0.638501    0.291463     0.007504
PT1287   PT        0.217989    0.673621    0.325468     0.004505
PT1288   PT        0.254166    0.638030    0.326673     0.004505
PT1289   PT        0.254225    0.674372    0.291099     0.004505
PT1290   PT        0.288328    0.639352    0.290794     0.004505
PT1291   PT        0.288797    0.671930    0.326279     0.004505
PT1292   PT        0.324267    0.639177    0.325921     0.004505
PT1293   PT        0.320397    0.675485    0.292173     0.004505
AU1294   AU        0.357753    0.638119    0.290107     0.007504
PT1295   PT        0.359228    0.672928    0.327427     0.004505
PT1296   PT        0.394529    0.637703    0.327013     0.004505
AU1297   AU        0.393316    0.676627    0.291702     0.007504
AU1298   AU        0.429838    0.637539    0.291350     0.007504
PT1299   PT        0.427516    0.672265    0.323960     0.004505
PT1300   PT        0.464547    0.636834    0.327225     0.004505
AU1301   AU        0.464299    0.673605    0.292380     0.007504
AU1302   AU        0.498561    0.640223    0.291213     0.007504
AU1303   AU        0.498803    0.674037    0.325651     0.007504
PT1304   PT        0.532838    0.637021    0.325663     0.004505
PT1305   PT        0.534895    0.674942    0.291062     0.004505
PT1306   PT        0.567387    0.639558    0.293314     0.004505
PT1307   PT        0.566537    0.675580    0.325859     0.004505
PT1308   PT        0.603811    0.639255    0.325281     0.004505
AU1309   AU        0.601479    0.677324    0.289798     0.007504
AU1310   AU        0.640682    0.638228    0.293071     0.007504
AU1311   AU        0.637176    0.676264    0.327188     0.007504
PT1312   PT        0.673204    0.640908    0.327091     0.004505
AU1313   AU        0.674777    0.678199    0.292667     0.007504
AU1314   AU        0.706172    0.639966    0.292450     0.007504
AU1315   AU        0.707888    0.678727    0.327861     0.007504
AU1316   AU        0.742171    0.642742    0.326043     0.007504
PT1317   PT        0.742896    0.677728    0.290777     0.004505
PT1318   PT        0.142259    0.715592    0.290219     0.004505
AU1319   AU        0.178390    0.713345    0.323669     0.007504
PT1320   PT        0.178564    0.749932    0.290544     0.004505
PT1321   PT        0.214645    0.710645    0.288803     0.004505
PT1322   PT        0.213549    0.750646    0.325595     0.004505
PT1323   PT        0.252038    0.714230    0.325262     0.004505
AU1324   AU        0.252364    0.749238    0.291951     0.007504
PT1325   PT        0.284978    0.714122    0.291524     0.004505
AU1326   AU        0.289953    0.749797    0.325060     0.007504
AU1327   AU        0.320459    0.711042    0.328780     0.007504
AU1328   AU        0.323280    0.747466    0.291446     0.007504
PT1329   PT        0.356473    0.709528    0.293008     0.004505
AU1330   AU        0.358684    0.748564    0.325496     0.007504
PT1331   PT        0.393922    0.710177    0.326920     0.004505
PT1332   PT        0.392891    0.750273    0.286555     0.004505
PT1333   PT        0.427368    0.708961    0.291584     0.004505
AU1334   AU        0.428148    0.750260    0.324066     0.007504
PT1335   PT        0.461585    0.708622    0.327633     0.004505
AU1336   AU        0.459452    0.746270    0.290889     0.007504
AU1337   AU        0.496342    0.710274    0.291297     0.007504
PT1338   PT        0.498305    0.747518    0.322477     0.004505
PT1339   PT        0.533790    0.708675    0.324668     0.004505
AU1340   AU        0.533247    0.747716    0.288707     0.007504
AU1341   AU        0.569602    0.715302    0.287328     0.007504
AU1342   AU        0.565881    0.744321    0.325939     0.007504
AU1343   AU        0.603252    0.709941    0.327190     0.007504
PT1344   PT        0.606486    0.747880    0.288359     0.004505
PT1345   PT        0.638290    0.709258    0.289865     0.004505
PT1346   PT        0.637085    0.744395    0.325629     0.004505
AU1347   AU        0.675138    0.714078    0.327755     0.007504
AU1348   AU        0.674022    0.747642    0.294068     0.007504
PT1349   PT        0.711508    0.716722    0.290034     0.004505
AU1350   AU        0.251968    0.787129    0.325717     0.007504
AU1351   AU        0.289712    0.786358    0.293962     0.007504
AU1352   AU        0.283818    0.856377    0.357156     0.007504
AU1353   AU        0.326149    0.785601    0.328047     0.007504
AU1354   AU        0.323239    0.821730    0.293115     0.007504
AU1355   AU        0.357399    0.786004    0.288577     0.007504
PT1356   PT        0.359929    0.821843    0.328617     0.004505
AU1357   AU        0.394606    0.783730    0.327530     0.007504
AU1358   AU        0.394192    0.823913    0.289766     0.007504
AU1359   AU        0.428581    0.785707    0.290029     0.007504
AU1360   AU        0.430590    0.823136    0.324653     0.007504
PT1361   PT        0.463834    0.786856    0.323823     0.004505
PT1362   PT        0.464178    0.819581    0.288327     0.004505
PT1363   PT        0.500532    0.783823    0.289771     0.004505
AU1364   AU        0.499872    0.821524    0.325170     0.007504
PT1365   PT        0.536244    0.784098    0.324584     0.004505
AU1366   AU        0.535513    0.823334    0.289089     0.007504
PT1367   PT        0.567102    0.783523    0.289561     0.004505
PT1368   PT        0.572567    0.859456    0.363941     0.004505
PT1369   PT        0.602543    0.781338    0.325259     0.004505
AU1370   AU        0.254423    0.040184    0.359874     0.007504
PT1371   PT        0.290202    0.035479    0.396835     0.004505
PT1372   PT        0.319329    0.000714    0.329788     0.004505
AU1373   AU        0.357925    0.039522    0.397532     0.007504
AU1374   AU        0.391474    0.002266    0.396552     0.007504
AU1375   AU        0.392858    0.039061    0.363717     0.007504
PT1376   PT        0.427711    0.004815    0.365920     0.004505
AU1377   AU        0.430066    0.039196    0.398846     0.007504
AU1378   AU        0.464715    0.002958    0.399865     0.007504
PT1379   PT        0.464065    0.040868    0.364869     0.004505
AU1380   AU        0.498580    0.040017    0.398104     0.007504
PT1381   PT        0.532966    0.043444    0.361701     0.004505
PT1382   PT        0.567042    0.041475    0.396785     0.004505
PT1383   PT        0.607733    0.042292    0.363203     0.004505
AU1384   AU        0.141453    0.110144    0.396235     0.007504
AU1385   AU        0.177120    0.038484    0.361308     0.007504
AU1386   AU        0.182014    0.111030    0.359182     0.007504
PT1387   PT        0.214880    0.074307    0.360466     0.004505
PT1388   PT        0.218615    0.114592    0.398818     0.004505
AU1389   AU        0.255299    0.074065    0.396408     0.007504
AU1390   AU        0.252948    0.112312    0.362421     0.007504
AU1391   AU        0.288465    0.075402    0.362488     0.007504
AU1392   AU        0.290085    0.111802    0.395329     0.007504
PT1393   PT        0.322360    0.074304    0.397287     0.004505
AU1394   AU        0.323078    0.113249    0.359728     0.007504
PT1395   PT        0.358353    0.079637    0.359832     0.004505
PT1396   PT        0.359024    0.114519    0.396288     0.004505
PT1397   PT        0.393399    0.076458    0.395666     0.004505
PT1398   PT        0.394813    0.114015    0.360787     0.004505
AU1399   AU        0.427286    0.077909    0.363241     0.007504
PT1400   PT        0.428533    0.112817    0.396840     0.004505
PT1401   PT        0.463762    0.077138    0.396114     0.004505
AU1402   AU        0.463058    0.113878    0.361820     0.007504
PT1403   PT        0.498510    0.078283    0.361491     0.004505
AU1404   AU        0.499092    0.111483    0.395929     0.007504
PT1405   PT        0.533924    0.076184    0.397214     0.004505
PT1406   PT        0.533758    0.112382    0.360508     0.004505
AU1407   AU        0.569913    0.077318    0.362496     0.007504
AU1408   AU        0.568571    0.113861    0.396760     0.007504
PT1409   PT        0.603668    0.077704    0.397284     0.004505
AU1410   AU        0.604814    0.112459    0.359815     0.007504
AU1411   AU        0.641000    0.075922    0.360848     0.007504
AU1412   AU        0.640774    0.112952    0.395095     0.007504
PT1413   PT        0.679661    0.072605    0.399257     0.004505
AU1414   AU        0.678402    0.109648    0.359354     0.007504
PT1415   PT        0.715924    0.110956    0.398536     0.004505
AU1416   AU        0.071617    0.186522    0.393409     0.007504
AU1417   AU        0.103462    0.146246    0.395271     0.007504
AU1418   AU        0.107735    0.183082    0.357950     0.007504
AU1419   AU        0.144071    0.145600    0.361119     0.007504
AU1420   AU        0.142853    0.183677    0.393383     0.007504
PT1421   PT        0.180956    0.147017    0.394237     0.004505
AU1422   AU        0.180532    0.181067    0.360806     0.007504
PT1423   PT        0.217715    0.147206    0.359262     0.004505
PT1424   PT        0.218674    0.181323    0.396808     0.004505
AU1425   AU        0.253610    0.148140    0.397581     0.007504
AU1426   AU        0.252232    0.180923    0.361247     0.007504
PT1427   PT        0.287543    0.150009    0.362316     0.004505
AU1428   AU        0.288582    0.184785    0.397754     0.007504
PT1429   PT        0.325294    0.147633    0.395443     0.004505
AU1430   AU        0.323703    0.184947    0.360851     0.007504
PT1431   PT        0.357073    0.149238    0.359659     0.004505
PT1432   PT        0.360593    0.183957    0.395631     0.004505
PT1433   PT        0.393037    0.149346    0.395062     0.004505
AU1434   AU        0.392039    0.183577    0.361189     0.007504
PT1435   PT        0.428548    0.148241    0.361482     0.004505
AU1436   AU        0.428267    0.183788    0.395726     0.007504
PT1437   PT        0.465131    0.146102    0.398330     0.004505
AU1438   AU        0.464943    0.181449    0.361642     0.007504
PT1439   PT        0.500611    0.148570    0.362348     0.004505
PT1440   PT        0.499138    0.183406    0.396369     0.004505
AU1441   AU        0.534089    0.147325    0.397007     0.007504
AU1442   AU        0.533538    0.184352    0.359720     0.007504
AU1443   AU        0.568791    0.148201    0.361442     0.007504
PT1444   PT        0.568586    0.183363    0.395072     0.004505
PT1445   PT        0.603150    0.148858    0.395456     0.004505
AU1446   AU        0.604173    0.184078    0.362439     0.007504
AU1447   AU        0.640959    0.148311    0.360401     0.007504
PT1448   PT        0.639493    0.182085    0.395218     0.004505
PT1449   PT        0.675869    0.146935    0.394701     0.004505
PT1450   PT        0.674250    0.185609    0.361265     0.004505
AU1451   AU        0.711419    0.148286    0.360733     0.007504
PT1452   PT        0.711993    0.182411    0.395187     0.004505
AU1453   AU        0.816211    0.103876    0.363041     0.007504
AU1454   AU        0.749172    0.181200    0.355166     0.007504
PT1455   PT        0.779800    0.178190    0.397329     0.004505
AU1456   AU        0.037527    0.251678    0.359165     0.007504
AU1457   AU        0.073317    0.219607    0.356435     0.007504
PT1458   PT        0.073892    0.253998    0.397277     0.004505
PT1459   PT        0.113131    0.219131    0.396790     0.004505
AU1460   AU        0.110086    0.251895    0.363142     0.007504
AU1461   AU        0.148238    0.218029    0.359179     0.007504
PT1462   PT        0.148671    0.253712    0.394779     0.004505
AU1463   AU        0.182650    0.217935    0.396375     0.007504
AU1464   AU        0.182466    0.254273    0.359759     0.007504
AU1465   AU        0.217570    0.218507    0.361041     0.007504
PT1466   PT        0.217856    0.254253    0.396047     0.004505
AU1467   AU        0.252076    0.218236    0.395822     0.007504
PT1468   PT        0.252758    0.252732    0.361812     0.004505
PT1469   PT        0.287640    0.219212    0.362523     0.004505
PT1470   PT        0.288599    0.254128    0.396060     0.004505
PT1471   PT        0.322805    0.220300    0.395402     0.004505
AU1472   AU        0.323009    0.254443    0.360539     0.007504
PT1473   PT        0.358988    0.218548    0.359846     0.004505
PT1474   PT        0.359617    0.252098    0.394997     0.004505
PT1475   PT        0.394213    0.219101    0.396691     0.004505
PT1476   PT        0.393974    0.254083    0.362050     0.004505
AU1477   AU        0.427906    0.219705    0.361804     0.007504
PT1478   PT        0.429682    0.255052    0.395243     0.004505
PT1479   PT        0.463909    0.216991    0.394398     0.004505
AU1480   AU        0.463148    0.253314    0.361710     0.007504
AU1481   AU        0.498068    0.218610    0.359664     0.007504
PT1482   PT        0.498008    0.252926    0.395311     0.004505
PT1483   PT        0.534793    0.219177    0.397146     0.004505
AU1484   AU        0.533068    0.253457    0.359781     0.007504
AU1485   AU        0.568774    0.219141    0.359955     0.007504
PT1486   PT        0.568735    0.253505    0.395864     0.004505
PT1487   PT        0.604128    0.218095    0.395469     0.004505
PT1488   PT        0.602479    0.255041    0.359735     0.004505
AU1489   AU        0.637895    0.219791    0.359737     0.007504
AU1490   AU        0.638572    0.252940    0.395104     0.007504
AU1491   AU        0.674183    0.218858    0.395117     0.007504
AU1492   AU        0.673161    0.253309    0.359901     0.007504
PT1493   PT        0.708978    0.218117    0.360115     0.004505
AU1494   AU        0.708853    0.254028    0.394485     0.007504
AU1495   AU        0.746518    0.214814    0.393294     0.007504
AU1496   AU        0.746354    0.252460    0.361331     0.007504
AU1497   AU        0.781643    0.218907    0.357980     0.007504
AU1498   AU        0.782444    0.253365    0.395855     0.007504
PT1499   PT        0.818743    0.252446    0.357412     0.004505
PT1500   PT        0.031202    0.277157    0.415791     0.004505
AU1501   AU        0.001841    0.285700    0.357370     0.007504
PT1502   PT        0.077110    0.288291    0.360368     0.004505
AU1503   AU        0.075723    0.325320    0.396759     0.007504
AU1504   AU        0.109239    0.289844    0.394982     0.007504
AU1505   AU        0.112233    0.325075    0.360749     0.007504
PT1506   PT        0.147014    0.289396    0.361843     0.004505
AU1507   AU        0.147932    0.323465    0.395700     0.007504
PT1508   PT        0.182462    0.288246    0.395521     0.004505
PT1509   PT        0.183536    0.325116    0.361797     0.004505
PT1510   PT        0.217889    0.288984    0.361760     0.004505
AU1511   AU        0.217330    0.323319    0.394870     0.007504
PT1512   PT        0.253671    0.288355    0.396626     0.004505
PT1513   PT        0.252756    0.324522    0.362205     0.004505
AU1514   AU        0.288398    0.289231    0.362446     0.007504
PT1515   PT        0.288688    0.322471    0.397051     0.004505
PT1516   PT        0.324596    0.287856    0.397333     0.004505
PT1517   PT        0.323697    0.322579    0.360990     0.004505
PT1518   PT        0.358030    0.288086    0.361580     0.004505
PT1519   PT        0.358986    0.323382    0.396097     0.004505
PT1520   PT        0.391961    0.289373    0.397707     0.004505
PT1521   PT        0.393790    0.322031    0.361819     0.004505
PT1522   PT        0.429023    0.287963    0.361614     0.004505
PT1523   PT        0.427617    0.323706    0.397300     0.004505
PT1524   PT        0.465901    0.287819    0.396642     0.004505
AU1525   AU        0.463797    0.321994    0.360296     0.007504
PT1526   PT        0.499201    0.288133    0.359825     0.004505
PT1527   PT        0.498940    0.323305    0.397058     0.004505
PT1528   PT        0.534359    0.289599    0.396414     0.004505
PT1529   PT        0.534614    0.321989    0.361334     0.004505
PT1530   PT        0.570414    0.289185    0.360466     0.004505
PT1531   PT        0.568336    0.323263    0.395804     0.004505
AU1532   AU        0.603674    0.290514    0.396840     0.007504
PT1533   PT        0.603065    0.324214    0.361042     0.004505
AU1534   AU        0.638040    0.288844    0.360861     0.007504
PT1535   PT        0.639044    0.324518    0.394149     0.004505
PT1536   PT        0.674183    0.288815    0.394756     0.004505
PT1537   PT        0.675571    0.323240    0.361155     0.004505
AU1538   AU        0.710921    0.288341    0.360421     0.007504
AU1539   AU        0.707692    0.322892    0.395496     0.007504
AU1540   AU        0.747123    0.288889    0.395157     0.007504
PT1541   PT        0.744354    0.323021    0.360628     0.004505
PT1542   PT        0.782525    0.289503    0.360850     0.004505
AU1543   AU        0.781541    0.322597    0.395098     0.007504
PT1544   PT        0.817315    0.289811    0.393873     0.004505
PT1545   PT        0.855646    0.359347    0.357103     0.004505
AU1546   AU        0.003583    0.395693    0.397883     0.007504
AU1547   AU        0.038863    0.362549    0.397752     0.007504
AU1548   AU        0.038598    0.396985    0.359310     0.007504
AU1549   AU        0.075520    0.361407    0.361552     0.007504
PT1550   PT        0.074131    0.396080    0.396201     0.004505
AU1551   AU        0.112431    0.359937    0.395127     0.007504
AU1552   AU        0.112163    0.394035    0.361084     0.007504
AU1553   AU        0.148739    0.360597    0.360830     0.007504
AU1554   AU        0.147139    0.394082    0.396698     0.007504
PT1555   PT        0.183530    0.358704    0.396994     0.004505
PT1556   PT        0.182811    0.392709    0.361833     0.004505
AU1557   AU        0.219134    0.358694    0.359340     0.007504
PT1558   PT        0.217379    0.393347    0.395602     0.004505
PT1559   PT        0.253237    0.358677    0.397096     0.004505
PT1560   PT        0.252548    0.394978    0.363132     0.004505
AU1561   AU        0.288203    0.360545    0.361287     0.007504
PT1562   PT        0.287333    0.392966    0.397547     0.004505
PT1563   PT        0.323710    0.357516    0.396465     0.004505
AU1564   AU        0.322937    0.394612    0.362828     0.007504
PT1565   PT        0.358448    0.359064    0.362117     0.004505
PT1566   PT        0.359776    0.394083    0.397746     0.004505
PT1567   PT        0.391360    0.358828    0.396360     0.004505
AU1568   AU        0.392318    0.393957    0.361818     0.007504
PT1569   PT        0.428952    0.357929    0.360044     0.004505
PT1570   PT        0.429480    0.392291    0.396348     0.004505
PT1571   PT        0.464067    0.358632    0.397266     0.004505
AU1572   AU        0.464231    0.392313    0.360544     0.007504
PT1573   PT        0.497547    0.359135    0.361843     0.004505
PT1574   PT        0.498828    0.392330    0.397220     0.004505
PT1575   PT        0.533539    0.357786    0.395777     0.004505
PT1576   PT        0.534504    0.392462    0.360680     0.004505
AU1577   AU        0.568576    0.358267    0.361154     0.007504
PT1578   PT        0.569841    0.394207    0.397602     0.004505
PT1579   PT        0.603513    0.359395    0.396217     0.004505
PT1580   PT        0.605108    0.393094    0.360956     0.004505
PT1581   PT        0.639858    0.357594    0.361064     0.004505
PT1582   PT        0.638646    0.393121    0.395254     0.004505
PT1583   PT        0.671868    0.359312    0.397500     0.004505
PT1584   PT        0.674129    0.393656    0.361037     0.004505
PT1585   PT        0.708359    0.358089    0.362139     0.004505
PT1586   PT        0.707989    0.393846    0.393830     0.004505
AU1587   AU        0.743753    0.357899    0.396204     0.007504
PT1588   PT        0.742613    0.393482    0.359542     0.004505
PT1589   PT        0.780093    0.361342    0.359860     0.004505
PT1590   PT        0.781137    0.393262    0.395743     0.004505
AU1591   AU        0.818190    0.357224    0.392312     0.007504
AU1592   AU        0.816966    0.393320    0.359964     0.007504
AU1593   AU        0.855522    0.391158    0.396460     0.007504
AU1594   AU        0.003312    0.432298    0.358175     0.007504
AU1595   AU        0.004079    0.463487    0.398452     0.007504
AU1596   AU        0.038926    0.430879    0.395990     0.007504
PT1597   PT        0.042667    0.463430    0.361916     0.004505
AU1598   AU        0.078089    0.427535    0.361170     0.007504
PT1599   PT        0.076322    0.464950    0.398058     0.004505
AU1600   AU        0.111814    0.429813    0.394598     0.007504
PT1601   PT        0.113615    0.465683    0.361548     0.004505
PT1602   PT        0.148905    0.428258    0.361286     0.004505
PT1603   PT        0.146934    0.464134    0.396330     0.004505
AU1604   AU        0.181836    0.428136    0.396533     0.007504
PT1605   PT        0.183600    0.465138    0.361486     0.004505
PT1606   PT        0.216991    0.430624    0.360148     0.004505
PT1607   PT        0.219703    0.463639    0.396011     0.004505
AU1608   AU        0.253059    0.426726    0.396777     0.007504
PT1609   PT        0.253053    0.462682    0.361339     0.004505
AU1610   AU        0.287446    0.427694    0.361815     0.007504
PT1611   PT        0.286845    0.462856    0.395241     0.004505
AU1612   AU        0.322636    0.428483    0.396535     0.007504
PT1613   PT        0.324011    0.465182    0.359677     0.004505
PT1614   PT        0.359506    0.428742    0.361086     0.004505
PT1615   PT        0.357236    0.462984    0.397142     0.004505
AU1616   AU        0.393847    0.428528    0.397677     0.007504
AU1617   AU        0.392293    0.463547    0.361812     0.007504
AU1618   AU        0.429090    0.429070    0.361928     0.007504
PT1619   PT        0.427951    0.464037    0.398199     0.004505
AU1620   AU        0.464458    0.426828    0.396417     0.007504
AU1621   AU        0.461871    0.464208    0.361170     0.007504
PT1622   PT        0.499167    0.428072    0.361505     0.004505
AU1623   AU        0.500151    0.463712    0.395548     0.007504
PT1624   PT        0.534906    0.429635    0.395538     0.004505
PT1625   PT        0.534919    0.464627    0.360051     0.004505
PT1626   PT        0.570336    0.426632    0.361632     0.004505
PT1627   PT        0.567844    0.463404    0.396907     0.004505
AU1628   AU        0.603356    0.428652    0.396823     0.007504
AU1629   AU        0.604091    0.462307    0.361709     0.007504
PT1630   PT        0.638783    0.428942    0.361646     0.004505
PT1631   PT        0.640162    0.464712    0.395519     0.004505
PT1632   PT        0.673146    0.429131    0.395741     0.004505
PT1633   PT        0.673593    0.464600    0.361524     0.004505
PT1634   PT        0.710233    0.429393    0.360340     0.004505
PT1635   PT        0.709217    0.463908    0.396543     0.004505
PT1636   PT        0.746140    0.427969    0.397063     0.004505
PT1637   PT        0.745034    0.464304    0.362141     0.004505
PT1638   PT        0.782568    0.432242    0.359665     0.004505
AU1639   AU        0.783494    0.462108    0.397935     0.007504
AU1640   AU        0.818478    0.426787    0.394985     0.007504
PT1641   PT        0.818735    0.466606    0.361276     0.004505
AU1642   AU        0.852707    0.427922    0.362686     0.007504
PT1643   PT        0.853329    0.465670    0.392907     0.004505
AU1644   AU        0.039887    0.501372    0.399499     0.007504
PT1645   PT        0.039579    0.535496    0.359843     0.004505
PT1646   PT        0.077073    0.498803    0.361123     0.004505
PT1647   PT        0.077356    0.537320    0.395439     0.004505
AU1648   AU        0.111531    0.500774    0.395258     0.007504
AU1649   AU        0.112356    0.535353    0.362791     0.007504
AU1650   AU        0.148046    0.499588    0.361961     0.007504
PT1651   PT        0.147793    0.535568    0.398460     0.004505
AU1652   AU        0.182949    0.500057    0.395735     0.007504
AU1653   AU        0.183265    0.533619    0.361705     0.007504
PT1654   PT        0.218841    0.499565    0.361573     0.004505
PT1655   PT        0.217783    0.534932    0.396775     0.004505
AU1656   AU        0.253785    0.499488    0.396403     0.007504
AU1657   AU        0.254062    0.533766    0.364509     0.007504
PT1658   PT        0.287184    0.499318    0.360902     0.004505
PT1659   PT        0.288340    0.535229    0.394969     0.004505
PT1660   PT        0.321272    0.498196    0.396420     0.004505
PT1661   PT        0.322233    0.532139    0.360369     0.004505
AU1662   AU        0.358110    0.500288    0.361775     0.007504
PT1663   PT        0.356788    0.533006    0.396819     0.004505
AU1664   AU        0.391961    0.498874    0.397036     0.007504
AU1665   AU        0.393382    0.533585    0.360371     0.007504
PT1666   PT        0.428650    0.499461    0.361897     0.004505
AU1667   AU        0.429455    0.533376    0.396203     0.007504
PT1668   PT        0.463665    0.499619    0.394407     0.004505
PT1669   PT        0.464255    0.534537    0.361165     0.004505
AU1670   AU        0.498078    0.497856    0.360902     0.007504
PT1671   PT        0.496873    0.533117    0.396469     0.004505
PT1672   PT        0.534343    0.499357    0.395932     0.004505
PT1673   PT        0.535285    0.533105    0.361946     0.004505
PT1674   PT        0.569560    0.497743    0.360168     0.004505
PT1675   PT        0.570810    0.533657    0.396254     0.004505
PT1676   PT        0.603105    0.498961    0.395891     0.004505
PT1677   PT        0.604016    0.535497    0.361179     0.004505
AU1678   AU        0.638644    0.497511    0.361983     0.007504
PT1679   PT        0.638580    0.533462    0.394473     0.004505
PT1680   PT        0.673803    0.499432    0.395721     0.004505
PT1681   PT        0.671645    0.532910    0.360694     0.004505
PT1682   PT        0.707932    0.498497    0.362130     0.004505
PT1683   PT        0.709530    0.533327    0.395364     0.004505
AU1684   AU        0.743428    0.496679    0.395194     0.007504
AU1685   AU        0.744419    0.533429    0.361313     0.007504
AU1686   AU        0.780619    0.498526    0.359501     0.007504
PT1687   PT        0.781162    0.533318    0.397041     0.004505
PT1688   PT        0.819049    0.497913    0.398998     0.004505
PT1689   PT        0.814609    0.532647    0.361659     0.004505
AU1690   AU        0.037080    0.570498    0.398271     0.007504
AU1691   AU        0.036883    0.606168    0.359786     0.007504
AU1692   AU        0.074300    0.572783    0.359729     0.007504
AU1693   AU        0.071016    0.603962    0.395561     0.007504
AU1694   AU        0.110327    0.572539    0.394514     0.007504
PT1695   PT        0.109992    0.607214    0.359420     0.004505
AU1696   AU        0.145525    0.568786    0.361505     0.007504
AU1697   AU        0.145971    0.607568    0.396776     0.007504
PT1698   PT        0.180543    0.570573    0.394154     0.004505
PT1699   PT        0.180660    0.605612    0.362269     0.004505
PT1700   PT        0.219410    0.568174    0.361835     0.004505
AU1701   AU        0.218759    0.602964    0.395298     0.007504
PT1702   PT        0.254426    0.569343    0.398210     0.004505
AU1703   AU        0.253817    0.602678    0.361208     0.007504
PT1704   PT        0.287015    0.569467    0.361362     0.004505
AU1705   AU        0.286403    0.603814    0.396492     0.007504
PT1706   PT        0.323220    0.568704    0.395442     0.004505
PT1707   PT        0.323535    0.605302    0.361187     0.004505
PT1708   PT        0.358629    0.568136    0.361013     0.004505
PT1709   PT        0.358061    0.604301    0.395994     0.004505
PT1710   PT        0.392865    0.568074    0.396953     0.004505
AU1711   AU        0.395880    0.602875    0.361921     0.007504
PT1712   PT        0.427980    0.568175    0.362209     0.004505
PT1713   PT        0.428233    0.604433    0.398691     0.004505
AU1714   AU        0.462932    0.568811    0.396809     0.007504
PT1715   PT        0.462643    0.602484    0.360806     0.004505
PT1716   PT        0.499035    0.567975    0.361769     0.004505
AU1717   AU        0.498347    0.602959    0.396509     0.007504
AU1718   AU        0.536512    0.569266    0.396767     0.007504
PT1719   PT        0.534657    0.604201    0.362337     0.004505
PT1720   PT        0.569735    0.568602    0.361135     0.004505
PT1721   PT        0.569866    0.603610    0.396399     0.004505
PT1722   PT        0.604501    0.570908    0.395889     0.004505
PT1723   PT        0.603993    0.603542    0.360172     0.004505
AU1724   AU        0.640211    0.570308    0.360659     0.007504
AU1725   AU        0.640665    0.605215    0.394413     0.007504
PT1726   PT        0.673205    0.568075    0.395210     0.004505
AU1727   AU        0.675466    0.604099    0.360937     0.007504
PT1728   PT        0.708805    0.569922    0.360123     0.004505
AU1729   AU        0.709900    0.602426    0.395861     0.007504
AU1730   AU        0.747723    0.567825    0.396252     0.007504
AU1731   AU        0.745985    0.606719    0.360447     0.007504
AU1732   AU        0.780456    0.572608    0.360367     0.007504
PT1733   PT        0.783750    0.605614    0.397073     0.004505
PT1734   PT        0.819087    0.574217    0.394980     0.004505
PT1735   PT        0.819968    0.605193    0.356516     0.004505
AU1736   AU        0.072717    0.639333    0.360041     0.007504
AU1737   AU        0.071244    0.673218    0.394846     0.007504
AU1738   AU        0.107839    0.641634    0.394761     0.007504
PT1739   PT        0.106853    0.677399    0.361486     0.004505
AU1740   AU        0.144336    0.642767    0.360447     0.007504
AU1741   AU        0.144291    0.679072    0.395506     0.007504
PT1742   PT        0.181780    0.639956    0.396553     0.004505
AU1743   AU        0.179974    0.679434    0.359202     0.007504
PT1744   PT        0.218408    0.640751    0.362735     0.004505
AU1745   AU        0.215251    0.679662    0.396195     0.007504
PT1746   PT        0.251434    0.639265    0.396569     0.004505
AU1747   AU        0.253299    0.676326    0.360885     0.007504
AU1748   AU        0.287539    0.638211    0.362744     0.007504
AU1749   AU        0.289011    0.674458    0.395804     0.007504
PT1750   PT        0.323385    0.640476    0.397354     0.004505
PT1751   PT        0.323695    0.672419    0.361188     0.004505
PT1752   PT        0.358837    0.637143    0.360869     0.004505
PT1753   PT        0.359428    0.674194    0.394730     0.004505
AU1754   AU        0.393897    0.639530    0.395957     0.007504
PT1755   PT        0.393922    0.674368    0.358906     0.004505
AU1756   AU        0.428026    0.639856    0.359806     0.007504
AU1757   AU        0.428787    0.671856    0.395791     0.007504
AU1758   AU        0.462207    0.639449    0.397742     0.007504
PT1759   PT        0.463212    0.672969    0.360964     0.004505
AU1760   AU        0.499534    0.637456    0.360581     0.007504
AU1761   AU        0.499034    0.674453    0.397258     0.007504
PT1762   PT        0.535034    0.637744    0.396359     0.004505
PT1763   PT        0.534014    0.672572    0.362604     0.004505
PT1764   PT        0.570166    0.638303    0.360332     0.004505
PT1765   PT        0.569625    0.674411    0.397375     0.004505
PT1766   PT        0.602417    0.638394    0.396462     0.004505
PT1767   PT        0.602658    0.675604    0.359991     0.004505
PT1768   PT        0.638978    0.640226    0.361248     0.004505
AU1769   AU        0.637343    0.675249    0.396171     0.007504
AU1770   AU        0.676278    0.640065    0.397261     0.007504
PT1771   PT        0.672482    0.677405    0.362700     0.004505
AU1772   AU        0.708185    0.639219    0.361082     0.007504
AU1773   AU        0.711179    0.680266    0.396225     0.007504
AU1774   AU        0.747244    0.641774    0.394286     0.007504
PT1775   PT        0.742747    0.679361    0.360711     0.004505
AU1776   AU        0.785775    0.640958    0.361933     0.007504
PT1777   PT        0.787448    0.676482    0.397377     0.004505
PT1778   PT        0.107142    0.712487    0.393398     0.004505
AU1779   AU        0.142370    0.714405    0.359067     0.007504
PT1780   PT        0.139070    0.749510    0.394262     0.004505
AU1781   AU        0.178805    0.715178    0.395584     0.007504
AU1782   AU        0.180093    0.753048    0.361149     0.007504
AU1783   AU        0.216392    0.712826    0.360895     0.007504
PT1784   PT        0.215742    0.748428    0.395150     0.004505
AU1785   AU        0.252494    0.712110    0.398231     0.007504
PT1786   PT        0.251255    0.751488    0.359929     0.004505
AU1787   AU        0.287542    0.716750    0.362534     0.007504
AU1788   AU        0.289706    0.748355    0.400171     0.007504
AU1789   AU        0.323790    0.710498    0.394678     0.007504
PT1790   PT        0.323349    0.749623    0.362303     0.004505
PT1791   PT        0.357664    0.710221    0.360045     0.004505
PT1792   PT        0.358234    0.744674    0.395824     0.004505
AU1793   AU        0.396800    0.708916    0.397156     0.007504
AU1794   AU        0.393563    0.746820    0.359523     0.007504
AU1795   AU        0.428181    0.709736    0.361105     0.007504
PT1796   PT        0.431541    0.746512    0.394488     0.004505
PT1797   PT        0.462810    0.708822    0.394756     0.004505
AU1798   AU        0.462982    0.748327    0.357255     0.007504
PT1799   PT        0.496887    0.709017    0.359495     0.004505
PT1800   PT        0.499832    0.746401    0.395227     0.004505
PT1801   PT        0.533304    0.710160    0.394024     0.004505
PT1802   PT        0.531973    0.744503    0.359196     0.004505
AU1803   AU        0.567531    0.709585    0.361270     0.007504
AU1804   AU        0.566898    0.747255    0.395662     0.007504
PT1805   PT        0.603825    0.712519    0.399483     0.004505
PT1806   PT        0.602789    0.745559    0.361980     0.004505
PT1807   PT        0.639095    0.713202    0.362828     0.004505
PT1808   PT        0.641644    0.751053    0.397997     0.004505
AU1809   AU        0.674714    0.717167    0.396472     0.007504
AU1810   AU        0.674588    0.752903    0.359402     0.007504
PT1811   PT        0.708958    0.718295    0.361465     0.004505
AU1812   AU        0.711282    0.749881    0.398317     0.007504
PT1813   PT        0.746167    0.716182    0.394700     0.004505
AU1814   AU        0.175047    0.784432    0.399278     0.007504
PT1815   PT        0.213528    0.787862    0.364361     0.004505
PT1816   PT        0.252270    0.785683    0.399369     0.004505
AU1817   AU        0.249215    0.822590    0.363024     0.007504
AU1818   AU        0.287580    0.785616    0.362829     0.007504
AU1819   AU        0.287362    0.822142    0.396197     0.007504
AU1820   AU        0.321237    0.786479    0.397457     0.007504
PT1821   PT        0.322949    0.825080    0.364600     0.004505
AU1822   AU        0.356840    0.786537    0.364718     0.007504
PT1823   PT        0.359796    0.818853    0.398351     0.004505
AU1824   AU        0.396432    0.782004    0.396277     0.007504
AU1825   AU        0.395575    0.821119    0.364343     0.007504
PT1826   PT        0.429696    0.786532    0.361386     0.004505
AU1827   AU        0.429401    0.821366    0.397168     0.007504
AU1828   AU        0.465963    0.782243    0.398448     0.007504
AU1829   AU        0.464704    0.822873    0.362630     0.007504
AU1830   AU        0.498259    0.784897    0.360630     0.007504
PT1831   PT        0.497507    0.821524    0.397112     0.004505
AU1832   AU        0.533618    0.782589    0.394494     0.007504
AU1833   AU        0.533286    0.823790    0.360312     0.007504
AU1834   AU        0.570168    0.783433    0.361898     0.007504
AU1835   AU        0.570629    0.820058    0.396133     0.007504
AU1836   AU        0.604107    0.783968    0.395521     0.007504
PT1837   PT        0.606514    0.821314    0.364500     0.004505
PT1838   PT        0.638655    0.786112    0.358584     0.004505
PT1839   PT        0.678067    0.786239    0.393455     0.004505
AU1840   AU        0.394265    0.856436    0.398322     0.007504
PT1841   PT        0.425924    0.857142    0.361977     0.004505
PT1842   PT        0.463083    0.859316    0.399532     0.004505
PT1843   PT        0.252100    0.038012    0.428535     0.004505
AU1844   AU        0.287056    0.042711    0.465350     0.007504
AU1845   AU        0.322935    0.041785    0.433467     0.007504
PT1846   PT        0.356787    0.005969    0.434645     0.004505
AU1847   AU        0.359576    0.040299    0.470906     0.007504
PT1848   PT        0.396134    0.003650    0.471479     0.004505
PT1849   PT        0.394283    0.039915    0.434534     0.004505
AU1850   AU        0.429764    0.002673    0.432324     0.007504
AU1851   AU        0.429319    0.038738    0.469035     0.007504
AU1852   AU        0.468649    0.003370    0.466702     0.007504
AU1853   AU        0.465386    0.041909    0.433460     0.007504
AU1854   AU        0.502431    0.006070    0.432979     0.007504
PT1855   PT        0.501429    0.040590    0.468276     0.004505
AU1856   AU        0.533273    0.043035    0.433029     0.007504
PT1857   PT        0.571569    0.041716    0.465678     0.004505
AU1858   AU        0.601670    0.038218    0.430479     0.007504
AU1859   AU        0.144533    0.109827    0.465848     0.007504
AU1860   AU        0.182449    0.078505    0.465651     0.007504
AU1861   AU        0.179110    0.112736    0.428627     0.007504
AU1862   AU        0.218463    0.077114    0.431668     0.007504
PT1863   PT        0.217093    0.113345    0.465935     0.004505
AU1864   AU        0.251130    0.077286    0.467521     0.007504
PT1865   PT        0.255121    0.114166    0.431678     0.004505
PT1866   PT        0.282983    0.075964    0.429990     0.004505
AU1867   AU        0.288329    0.112890    0.465332     0.007504
PT1868   PT        0.326377    0.075818    0.465200     0.004505
PT1869   PT        0.322176    0.111180    0.429703     0.004505
AU1870   AU        0.357795    0.076421    0.430710     0.007504
AU1871   AU        0.357195    0.112148    0.465822     0.007504
PT1872   PT        0.394645    0.077627    0.468380     0.004505
PT1873   PT        0.392208    0.114499    0.432494     0.004505
AU1874   AU        0.429383    0.078171    0.430971     0.007504
PT1875   PT        0.427588    0.113422    0.466536     0.004505
AU1876   AU        0.462896    0.077733    0.468577     0.007504
PT1877   PT        0.464415    0.113159    0.432999     0.004505
AU1878   AU        0.500126    0.075380    0.432438     0.007504
AU1879   AU        0.499245    0.112115    0.466968     0.007504
PT1880   PT        0.536015    0.077444    0.467183     0.004505
AU1881   AU        0.534881    0.112661    0.430356     0.007504
PT1882   PT        0.569186    0.078288    0.431533     0.004505
PT1883   PT        0.569373    0.113871    0.467139     0.004505
AU1884   AU        0.602741    0.078057    0.465536     0.007504
PT1885   PT        0.602787    0.114483    0.430742     0.004505
AU1886   AU        0.638151    0.078856    0.431435     0.007504
AU1887   AU        0.639789    0.113361    0.466658     0.007504
AU1888   AU        0.677418    0.076969    0.465096     0.007504
AU1889   AU        0.675975    0.113017    0.432066     0.007504
PT1890   PT        0.707479    0.112929    0.466674     0.004505
AU1891   AU        0.075802    0.177946    0.466189     0.007504
AU1892   AU        0.110999    0.148368    0.466352     0.007504
AU1893   AU        0.107807    0.183199    0.428630     0.007504
AU1894   AU        0.142101    0.146565    0.427582     0.007504
AU1895   AU        0.147827    0.182021    0.465018     0.007504
PT1896   PT        0.181475    0.145656    0.466669     0.004505
AU1897   AU        0.180463    0.182334    0.429898     0.007504
AU1898   AU        0.216383    0.149317    0.430770     0.007504
AU1899   AU        0.218868    0.185148    0.465758     0.007504
PT1900   PT        0.254805    0.148527    0.466205     0.004505
PT1901   PT        0.251882    0.184352    0.431388     0.004505
PT1902   PT        0.289249    0.148460    0.429767     0.004505
PT1903   PT        0.288933    0.184947    0.465348     0.004505
AU1904   AU        0.324741    0.148397    0.465946     0.007504
PT1905   PT        0.322834    0.183167    0.428752     0.004505
AU1906   AU        0.357959    0.150418    0.431849     0.007504
PT1907   PT        0.357187    0.183708    0.466860     0.004505
AU1908   AU        0.392959    0.149138    0.466079     0.007504
AU1909   AU        0.393961    0.184645    0.432403     0.007504
PT1910   PT        0.429124    0.148564    0.430618     0.004505
PT1911   PT        0.429041    0.183735    0.466626     0.004505
AU1912   AU        0.462958    0.148601    0.466676     0.007504
AU1913   AU        0.464298    0.182980    0.430035     0.007504
AU1914   AU        0.499751    0.147667    0.431581     0.007504
PT1915   PT        0.499784    0.183785    0.465908     0.004505
PT1916   PT        0.535921    0.150594    0.467480     0.004505
AU1917   AU        0.535233    0.183257    0.431552     0.007504
AU1918   AU        0.571170    0.148981    0.431452     0.007504
PT1919   PT        0.569962    0.183494    0.466730     0.004505
AU1920   AU        0.604336    0.147687    0.466250     0.007504
AU1921   AU        0.606440    0.184023    0.429905     0.007504
PT1922   PT        0.639729    0.147273    0.433028     0.004505
PT1923   PT        0.638458    0.183146    0.466392     0.004505
PT1924   PT        0.675298    0.149100    0.467097     0.004505
PT1925   PT        0.673988    0.184275    0.430613     0.004505
AU1926   AU        0.713132    0.146227    0.431985     0.007504
AU1927   AU        0.709778    0.184038    0.467111     0.007504
PT1928   PT        0.744046    0.144785    0.467902     0.004505
AU1929   AU        0.748441    0.182124    0.433328     0.007504
AU1930   AU        0.781818    0.179490    0.469719     0.007504
PT1931   PT        0.029311    0.238002    0.451088     0.004505
AU1932   AU        0.071941    0.216582    0.434304     0.007504
AU1933   AU        0.075236    0.251130    0.468772     0.007504
AU1934   AU        0.109854    0.215756    0.464276     0.007504
AU1935   AU        0.110390    0.251573    0.433664     0.007504
PT1936   PT        0.147590    0.219601    0.432115     0.004505
AU1937   AU        0.146497    0.255071    0.466537     0.007504
AU1938   AU        0.183556    0.219256    0.466888     0.007504
AU1939   AU        0.181291    0.255160    0.431990     0.007504
PT1940   PT        0.217113    0.218288    0.430927     0.004505
PT1941   PT        0.219339    0.254221    0.464394     0.004505
AU1942   AU        0.252623    0.217053    0.466443     0.007504
AU1943   AU        0.251899    0.253892    0.431101     0.007504
PT1944   PT        0.286893    0.218664    0.430418     0.004505
PT1945   PT        0.287774    0.253020    0.466882     0.004505
PT1946   PT        0.323344    0.218296    0.466896     0.004505
PT1947   PT        0.322869    0.253094    0.431021     0.004505
AU1948   AU        0.358792    0.218803    0.431656     0.007504
PT1949   PT        0.358451    0.253565    0.465162     0.004505
PT1950   PT        0.395722    0.217685    0.465715     0.004505
PT1951   PT        0.394016    0.253044    0.431015     0.004505
AU1952   AU        0.429940    0.218245    0.431292     0.007504
AU1953   AU        0.427630    0.252784    0.466505     0.007504
AU1954   AU        0.465479    0.217781    0.466439     0.007504
AU1955   AU        0.462184    0.252755    0.431629     0.007504
AU1956   AU        0.500316    0.219361    0.430918     0.007504
PT1957   PT        0.500385    0.254192    0.466159     0.004505
PT1958   PT        0.534407    0.218443    0.465738     0.004505
PT1959   PT        0.534951    0.253070    0.431904     0.004505
PT1960   PT        0.569648    0.217868    0.431293     0.004505
AU1961   AU        0.569773    0.254503    0.465951     0.007504
AU1962   AU        0.605203    0.219502    0.465163     0.007504
PT1963   PT        0.604964    0.253893    0.430084     0.004505
PT1964   PT        0.638913    0.219053    0.431949     0.004505
PT1965   PT        0.640671    0.253386    0.465332     0.004505
PT1966   PT        0.675553    0.218018    0.465840     0.004505
AU1967   AU        0.674457    0.254089    0.429576     0.007504
PT1968   PT        0.709683    0.217723    0.431540     0.004505
PT1969   PT        0.709265    0.254221    0.465194     0.004505
PT1970   PT        0.747791    0.218010    0.464028     0.004505
PT1971   PT        0.746173    0.252265    0.430951     0.004505
AU1972   AU        0.782509    0.217638    0.430382     0.007504
AU1973   AU        0.782612    0.252993    0.469245     0.007504
AU1974   AU        0.820492    0.250727    0.433527     0.007504
PT1975   PT        0.037985    0.286730    0.463550     0.004505
PT1976   PT        0.036616    0.324658    0.433175     0.004505
AU1977   AU        0.077659    0.291130    0.432552     0.007504
PT1978   PT        0.076059    0.321451    0.468314     0.004505
PT1979   PT        0.112115    0.288057    0.467378     0.004505
PT1980   PT        0.113484    0.323923    0.431664     0.004505
PT1981   PT        0.145109    0.286478    0.428532     0.004505
PT1982   PT        0.148049    0.322597    0.467037     0.004505
AU1983   AU        0.182153    0.286820    0.466570     0.007504
PT1984   PT        0.184496    0.322519    0.431277     0.004505
PT1985   PT        0.220144    0.289300    0.430531     0.004505
AU1986   AU        0.217715    0.322424    0.467527     0.007504
AU1987   AU        0.251494    0.288315    0.467148     0.007504
PT1988   PT        0.251681    0.324953    0.431970     0.004505
PT1989   PT        0.287228    0.288726    0.432078     0.004505
AU1990   AU        0.287476    0.323259    0.465657     0.007504
AU1991   AU        0.322348    0.288227    0.466238     0.007504
PT1992   PT        0.322662    0.324231    0.430440     0.004505
PT1993   PT        0.358180    0.288476    0.431648     0.004505
PT1994   PT        0.357090    0.322774    0.465413     0.004505
PT1995   PT        0.393073    0.288528    0.465382     0.004505
PT1996   PT        0.391595    0.324041    0.432102     0.004505
PT1997   PT        0.427432    0.288481    0.430765     0.004505
PT1998   PT        0.429275    0.322393    0.466332     0.004505
PT1999   PT        0.463864    0.288280    0.465398     0.004505
PT2000   PT        0.463649    0.324002    0.431577     0.004505
AU2001   AU        0.501140    0.286268    0.430914     0.007504
PT2002   PT        0.499119    0.322791    0.464852     0.004505
AU2003   AU        0.534938    0.288791    0.466592     0.007504
AU2004   AU        0.533836    0.323305    0.430731     0.007504
PT2005   PT        0.569114    0.289676    0.431316     0.004505
PT2006   PT        0.569500    0.322479    0.466209     0.004505
PT2007   PT        0.606257    0.288483    0.465376     0.004505
PT2008   PT        0.604678    0.322630    0.431436     0.004505
PT2009   PT        0.639517    0.288634    0.430248     0.004505
PT2010   PT        0.638846    0.325451    0.467113     0.004505
PT2011   PT        0.673239    0.289188    0.465437     0.004505
AU2012   AU        0.674355    0.322958    0.430134     0.007504
PT2013   PT        0.709936    0.287218    0.430955     0.004505
AU2014   AU        0.709604    0.323224    0.465594     0.007504
PT2015   PT        0.745222    0.287328    0.466112     0.004505
PT2016   PT        0.744202    0.322039    0.429559     0.004505
PT2017   PT        0.782659    0.286023    0.431259     0.004505
AU2018   AU        0.778296    0.324037    0.462683     0.007504
AU2019   AU        0.815557    0.287896    0.465526     0.007504
AU2020   AU        0.818611    0.324938    0.431992     0.007504
AU2021   AU        0.000714    0.361588    0.433859     0.007504
AU2022   AU        0.001275    0.393489    0.470796     0.007504
PT2023   PT        0.039727    0.359771    0.465787     0.004505
AU2024   AU        0.037038    0.395345    0.432792     0.007504
AU2025   AU        0.076095    0.358525    0.432238     0.007504
AU2026   AU        0.076413    0.395302    0.467975     0.007504
AU2027   AU        0.111957    0.360426    0.467684     0.007504
PT2028   PT        0.112871    0.395171    0.430984     0.004505
PT2029   PT        0.148116    0.359515    0.430980     0.004505
AU2030   AU        0.147028    0.394428    0.466656     0.007504
AU2031   AU        0.182231    0.359288    0.467113     0.007504
AU2032   AU        0.181640    0.394465    0.430967     0.007504
PT2033   PT        0.216849    0.359316    0.431899     0.004505
PT2034   PT        0.217857    0.393898    0.465918     0.004505
PT2035   PT        0.251251    0.359568    0.466441     0.004505
AU2036   AU        0.252400    0.392535    0.432336     0.007504
PT2037   PT        0.287824    0.357736    0.432323     0.004505
PT2038   PT        0.287039    0.393933    0.466636     0.004505
AU2039   AU        0.322043    0.357971    0.467713     0.007504
PT2040   PT        0.322131    0.393758    0.431031     0.004505
AU2041   AU        0.356260    0.358794    0.431649     0.007504
PT2042   PT        0.357375    0.393052    0.465909     0.004505
PT2043   PT        0.393292    0.359174    0.466705     0.004505
PT2044   PT        0.393285    0.393199    0.431403     0.004505
PT2045   PT        0.428223    0.359234    0.431585     0.004505
PT2046   PT        0.429480    0.394635    0.467456     0.004505
PT2047   PT        0.462233    0.360160    0.466137     0.004505
PT2048   PT        0.463354    0.394150    0.431709     0.004505
PT2049   PT        0.499967    0.359351    0.432357     0.004505
AU2050   AU        0.498080    0.394050    0.465387     0.007504
PT2051   PT        0.534820    0.357972    0.466260     0.004505
AU2052   AU        0.534161    0.394091    0.431292     0.007504
PT2053   PT        0.568267    0.357968    0.430427     0.004505
AU2054   AU        0.569858    0.392395    0.466671     0.007504
AU2055   AU        0.604973    0.357535    0.465250     0.007504
PT2056   PT        0.604426    0.394326    0.432954     0.004505
PT2057   PT        0.638112    0.357357    0.431485     0.004505
PT2058   PT        0.639007    0.394071    0.467115     0.004505
PT2059   PT        0.675548    0.357843    0.465913     0.004505
PT2060   PT        0.673966    0.392335    0.430400     0.004505
AU2061   AU        0.710210    0.359928    0.429586     0.007504
PT2062   PT        0.710458    0.392984    0.466276     0.004505
PT2063   PT        0.743597    0.359831    0.465791     0.004505
AU2064   AU        0.744959    0.393705    0.431927     0.007504
PT2065   PT        0.777985    0.357854    0.430562     0.004505
PT2066   PT        0.781436    0.391986    0.465787     0.004505
AU2067   AU        0.817942    0.358959    0.466137     0.007504
AU2068   AU        0.819821    0.395877    0.432274     0.007504
PT2069   PT        0.856852    0.357457    0.431434     0.004505
AU2070   AU        0.855583    0.392522    0.467651     0.007504
AU2071   AU        0.003241    0.429010    0.433498     0.007504
AU2072   AU        0.003468    0.463654    0.467458     0.007504
AU2073   AU        0.037030    0.426508    0.470277     0.007504
PT2074   PT        0.038208    0.464475    0.434850     0.004505
PT2075   PT        0.078196    0.428209    0.432525     0.004505
AU2076   AU        0.074483    0.462338    0.468844     0.007504
PT2077   PT        0.114285    0.429282    0.466767     0.004505
PT2078   PT        0.110804    0.463911    0.431423     0.004505
AU2079   AU        0.147533    0.430456    0.430286     0.007504
AU2080   AU        0.148062    0.465936    0.465912     0.007504
AU2081   AU        0.182614    0.428274    0.466833     0.007504
PT2082   PT        0.183018    0.464532    0.430363     0.004505
PT2083   PT        0.218452    0.428843    0.431811     0.004505
PT2084   PT        0.218248    0.462523    0.466956     0.004505
AU2085   AU        0.251711    0.428022    0.465340     0.007504
AU2086   AU        0.251970    0.464750    0.430674     0.007504
PT2087   PT        0.288193    0.428256    0.432865     0.004505
PT2088   PT        0.287800    0.462631    0.466464     0.004505
AU2089   AU        0.324121    0.427802    0.466169     0.007504
PT2090   PT        0.323601    0.464713    0.432203     0.004505
AU2091   AU        0.358016    0.428161    0.430841     0.007504
PT2092   PT        0.356049    0.463038    0.467374     0.004505
PT2093   PT        0.393605    0.428829    0.465111     0.004505
AU2094   AU        0.391982    0.463890    0.430866     0.007504
PT2095   PT        0.428675    0.427781    0.432123     0.004505
PT2096   PT        0.429616    0.462958    0.465712     0.004505
PT2097   PT        0.464329    0.429779    0.468704     0.004505
AU2098   AU        0.463367    0.462913    0.430975     0.007504
PT2099   PT        0.498009    0.429389    0.432325     0.004505
AU2100   AU        0.499828    0.463806    0.466318     0.007504
PT2101   PT        0.533665    0.428260    0.464616     0.004505
PT2102   PT        0.535361    0.463472    0.431195     0.004505
PT2103   PT        0.569438    0.428797    0.431322     0.004505
PT2104   PT        0.569788    0.464536    0.465788     0.004505
PT2105   PT        0.604196    0.429145    0.466553     0.004505
PT2106   PT        0.605745    0.463270    0.430464     0.004505
PT2107   PT        0.639982    0.429065    0.429416     0.004505
PT2108   PT        0.638062    0.463663    0.465953     0.004505
PT2109   PT        0.674254    0.429134    0.466983     0.004505
PT2110   PT        0.673925    0.464703    0.430103     0.004505
PT2111   PT        0.709488    0.428701    0.432065     0.004505
AU2112   AU        0.707667    0.465368    0.466927     0.007504
PT2113   PT        0.744078    0.428661    0.465029     0.004505
PT2114   PT        0.745043    0.462575    0.431454     0.004505
AU2115   AU        0.783072    0.429036    0.431921     0.007504
AU2116   AU        0.782419    0.461359    0.467417     0.007504
AU2117   AU        0.818798    0.429262    0.469339     0.007504
AU2118   AU        0.819753    0.463897    0.430860     0.007504
PT2119   PT        0.856522    0.429704    0.429010     0.004505
AU2120   AU        0.856930    0.464370    0.467141     0.007504
AU2121   AU        0.004769    0.499929    0.434993     0.007504
PT2122   PT        0.040232    0.500673    0.467767     0.004505
AU2123   AU        0.043818    0.535210    0.432239     0.007504
AU2124   AU        0.077444    0.501264    0.432111     0.007504
AU2125   AU        0.074815    0.534599    0.469177     0.007504
AU2126   AU        0.110952    0.498510    0.465971     0.007504
PT2127   PT        0.113806    0.536702    0.430906     0.004505
PT2128   PT        0.147877    0.499886    0.430375     0.004505
PT2129   PT        0.148483    0.533387    0.466898     0.004505
PT2130   PT        0.183495    0.499602    0.465507     0.004505
PT2131   PT        0.182568    0.535218    0.433146     0.004505
PT2132   PT        0.218295    0.500556    0.432441     0.004505
AU2133   AU        0.216588    0.534281    0.468493     0.007504
PT2134   PT        0.252819    0.500171    0.466911     0.004505
AU2135   AU        0.252441    0.533760    0.430755     0.007504
PT2136   PT        0.288549    0.499057    0.431657     0.004505
AU2137   AU        0.288723    0.533878    0.466230     0.007504
AU2138   AU        0.323615    0.498135    0.467176     0.007504
PT2139   PT        0.321917    0.533559    0.431536     0.004505
PT2140   PT        0.357800    0.499032    0.431363     0.004505
PT2141   PT        0.360492    0.531821    0.465599     0.004505
PT2142   PT        0.395904    0.497069    0.466072     0.004505
PT2143   PT        0.393320    0.533111    0.431543     0.004505
PT2144   PT        0.429283    0.500167    0.431602     0.004505
AU2145   AU        0.429700    0.533375    0.466907     0.007504
AU2146   AU        0.464404    0.498258    0.466898     0.007504
PT2147   PT        0.464787    0.535408    0.432037     0.004505
PT2148   PT        0.499928    0.498075    0.431439     0.004505
PT2149   PT        0.498134    0.532116    0.467568     0.004505
PT2150   PT        0.533022    0.498549    0.466249     0.004505
PT2151   PT        0.534760    0.533495    0.430796     0.004505
PT2152   PT        0.569223    0.498618    0.432206     0.004505
AU2153   AU        0.569489    0.533197    0.466895     0.007504
AU2154   AU        0.604787    0.498533    0.465425     0.007504
PT2155   PT        0.603928    0.534963    0.431258     0.004505
PT2156   PT        0.639219    0.498350    0.431074     0.004505
PT2157   PT        0.640761    0.533772    0.466087     0.004505
PT2158   PT        0.673009    0.499357    0.463930     0.004505
PT2159   PT        0.674328    0.533546    0.430527     0.004505
AU2160   AU        0.710227    0.497615    0.431371     0.007504
PT2161   PT        0.711088    0.531909    0.464146     0.004505
PT2162   PT        0.745024    0.497423    0.466617     0.004505
PT2163   PT        0.744309    0.532845    0.430229     0.004505
PT2164   PT        0.780325    0.498521    0.431159     0.004505
AU2165   AU        0.782713    0.534756    0.465184     0.007504
AU2166   AU        0.816872    0.498162    0.467223     0.007504
AU2167   AU        0.819628    0.532174    0.433512     0.007504
AU2168   AU        0.856953    0.497751    0.431406     0.007504
PT2169   PT        0.034616    0.568844    0.466484     0.004505
PT2170   PT        0.036393    0.606767    0.431985     0.004505
AU2171   AU        0.075194    0.570182    0.432408     0.007504
PT2172   PT        0.070817    0.604605    0.466687     0.004505
AU2173   AU        0.111331    0.570735    0.466647     0.007504
AU2174   AU        0.109855    0.607653    0.431406     0.007504
AU2175   AU        0.147190    0.572096    0.432127     0.007504
PT2176   PT        0.148481    0.606874    0.466240     0.004505
AU2177   AU        0.181567    0.570784    0.465970     0.007504
AU2178   AU        0.182396    0.605435    0.429652     0.007504
AU2179   AU        0.216674    0.571328    0.432615     0.007504
AU2180   AU        0.217914    0.605223    0.465776     0.007504
PT2181   PT        0.253578    0.568542    0.467797     0.004505
PT2182   PT        0.252368    0.604245    0.431788     0.004505
PT2183   PT        0.287537    0.567600    0.432206     0.004505
PT2184   PT        0.287148    0.602759    0.465395     0.004505
PT2185   PT        0.325220    0.568814    0.466259     0.004505
PT2186   PT        0.323627    0.603392    0.430142     0.004505
PT2187   PT        0.358484    0.568610    0.431278     0.004505
PT2188   PT        0.357353    0.603304    0.467816     0.004505
PT2189   PT        0.390599    0.568264    0.465995     0.004505
AU2190   AU        0.392406    0.604463    0.430972     0.007504
AU2191   AU        0.427492    0.567793    0.432343     0.007504
AU2192   AU        0.427746    0.601461    0.466002     0.007504
PT2193   PT        0.464055    0.570160    0.466252     0.004505
PT2194   PT        0.463902    0.603279    0.431658     0.004505
PT2195   PT        0.500307    0.568996    0.430508     0.004505
PT2196   PT        0.500578    0.603488    0.465861     0.004505
AU2197   AU        0.534577    0.568836    0.468233     0.007504
PT2198   PT        0.534820    0.604363    0.432394     0.004505
PT2199   PT        0.569529    0.571350    0.432782     0.004505
PT2200   PT        0.567907    0.604584    0.468095     0.004505
PT2201   PT        0.604481    0.569145    0.466825     0.004505
AU2202   AU        0.602706    0.603862    0.431798     0.007504
PT2203   PT        0.640472    0.568660    0.431541     0.004505
PT2204   PT        0.639861    0.603010    0.465559     0.004505
AU2205   AU        0.676024    0.568504    0.466094     0.007504
PT2206   PT        0.674528    0.604792    0.431605     0.004505
AU2207   AU        0.708721    0.568677    0.430669     0.007504
AU2208   AU        0.712211    0.604927    0.463756     0.007504
PT2209   PT        0.746261    0.567503    0.463984     0.004505
AU2210   AU        0.749105    0.605526    0.431612     0.007504
PT2211   PT        0.783298    0.570445    0.432646     0.004505
PT2212   PT        0.784396    0.604636    0.467506     0.004505
AU2213   AU        0.858213    0.532575    0.465956     0.007504
AU2214   AU        0.823223    0.606561    0.433507     0.007504
PT2215   PT        0.070803    0.642287    0.433038     0.004505
PT2216   PT        0.071794    0.679331    0.465957     0.004505
PT2217   PT        0.108259    0.642098    0.465427     0.004505
AU2218   AU        0.107542    0.680482    0.430684     0.007504
AU2219   AU        0.144559    0.643730    0.428746     0.007504
AU2220   AU        0.145043    0.675531    0.465013     0.007504
AU2221   AU        0.181178    0.639955    0.465230     0.007504
PT2222   PT        0.181979    0.678065    0.430207     0.004505
PT2223   PT        0.216755    0.640645    0.429599     0.004505
AU2224   AU        0.217048    0.677072    0.467284     0.007504
PT2225   PT        0.254370    0.638735    0.465553     0.004505
AU2226   AU        0.253257    0.675467    0.429776     0.007504
PT2227   PT        0.289623    0.641052    0.432695     0.004505
PT2228   PT        0.290141    0.674680    0.467082     0.004505
AU2229   AU        0.323402    0.639266    0.467126     0.007504
PT2230   PT        0.325609    0.675109    0.431552     0.004505
PT2231   PT        0.360073    0.639844    0.431358     0.004505
PT2232   PT        0.357351    0.675544    0.465925     0.004505
AU2233   AU        0.393142    0.637666    0.467701     0.007504
PT2234   PT        0.394455    0.673822    0.430116     0.004505
AU2235   AU        0.427938    0.638541    0.432145     0.007504
AU2236   AU        0.428698    0.676131    0.466296     0.007504
AU2237   AU        0.463849    0.639391    0.464946     0.007504
PT2238   PT        0.462631    0.676508    0.431029     0.004505
AU2239   AU        0.500025    0.638740    0.429727     0.007504
AU2240   AU        0.495384    0.675766    0.466182     0.007504
PT2241   PT        0.534414    0.640105    0.468543     0.004505
AU2242   AU        0.533795    0.676014    0.431788     0.007504
AU2243   AU        0.569186    0.638645    0.431077     0.007504
AU2244   AU        0.568753    0.675838    0.465282     0.007504
AU2245   AU        0.603401    0.641037    0.467257     0.007504
AU2246   AU        0.603201    0.674992    0.433393     0.007504
PT2247   PT        0.639570    0.638770    0.430398     0.004505
AU2248   AU        0.642013    0.674734    0.467918     0.007504
AU2249   AU        0.675790    0.640893    0.464932     0.007504
PT2250   PT        0.674536    0.677142    0.431183     0.004505
PT2251   PT        0.713617    0.640690    0.430336     0.004505
AU2252   AU        0.710274    0.680412    0.465526     0.007504
AU2253   AU        0.750749    0.641795    0.464673     0.007504
AU2254   AU        0.744566    0.679162    0.429707     0.007504
PT2255   PT        0.785599    0.638545    0.431028     0.004505
PT2256   PT        0.784776    0.676955    0.463556     0.004505
AU2257   AU        0.105580    0.715692    0.462452     0.007504
AU2258   AU        0.142916    0.712152    0.429494     0.007504
AU2259   AU        0.142068    0.750573    0.462086     0.007504
AU2260   AU        0.179377    0.714496    0.465414     0.007504
AU2261   AU        0.179734    0.747282    0.429604     0.007504
AU2262   AU        0.216866    0.712588    0.432819     0.007504
PT2263   PT        0.213914    0.748234    0.466314     0.004505
PT2264   PT        0.251424    0.710149    0.465697     0.004505
PT2265   PT        0.249637    0.748088    0.430389     0.004505
AU2266   AU        0.290063    0.711242    0.431234     0.007504
AU2267   AU        0.285861    0.747414    0.464271     0.007504
PT2268   PT        0.323554    0.713759    0.466100     0.004505
PT2269   PT        0.324812    0.748384    0.431818     0.004505
PT2270   PT        0.358513    0.711552    0.431003     0.004505
PT2271   PT        0.356919    0.748836    0.469401     0.004505
AU2272   AU        0.391840    0.711935    0.466817     0.007504
PT2273   PT        0.392608    0.747738    0.430495     0.004505
AU2274   AU        0.428810    0.711807    0.430846     0.007504
AU2275   AU        0.429457    0.745704    0.467977     0.007504
AU2276   AU        0.463213    0.712134    0.468617     0.007504
AU2277   AU        0.462714    0.744434    0.432140     0.007504
AU2278   AU        0.498716    0.712209    0.430500     0.007504
AU2279   AU        0.497688    0.746835    0.467119     0.007504
PT2280   PT        0.531668    0.707702    0.467245     0.004505
AU2281   AU        0.532044    0.748476    0.432051     0.007504
PT2282   PT        0.568355    0.711596    0.429635     0.004505
PT2283   PT        0.568405    0.747951    0.465866     0.004505
PT2284   PT        0.603172    0.712572    0.467349     0.004505
AU2285   AU        0.604775    0.750265    0.430164     0.007504
AU2286   AU        0.639712    0.714275    0.432696     0.007504
AU2287   AU        0.640470    0.748620    0.469164     0.007504
AU2288   AU        0.675039    0.714190    0.465140     0.007504
AU2289   AU        0.676783    0.753190    0.435037     0.007504
AU2290   AU        0.711127    0.716457    0.432095     0.007504
PT2291   PT        0.748493    0.745008    0.501512     0.004505
PT2292   PT        0.750276    0.713768    0.462312     0.004505
PT2293   PT        0.177585    0.784386    0.467934     0.004505
AU2294   AU        0.213019    0.785282    0.429846     0.007504
AU2295   AU        0.250864    0.783518    0.465625     0.007504
PT2296   PT        0.251454    0.824842    0.433259     0.004505
AU2297   AU        0.288489    0.787247    0.434427     0.007504
AU2298   AU        0.287242    0.821190    0.469109     0.007504
AU2299   AU        0.323330    0.784780    0.468597     0.007504
AU2300   AU        0.323940    0.820989    0.431465     0.007504
AU2301   AU        0.360434    0.784135    0.431082     0.007504
PT2302   PT        0.357855    0.821564    0.465577     0.004505
AU2303   AU        0.394505    0.783700    0.464651     0.007504
AU2304   AU        0.395470    0.820891    0.431800     0.007504
PT2305   PT        0.431114    0.782191    0.431403     0.004505
AU2306   AU        0.427468    0.820489    0.466844     0.007504
AU2307   AU        0.465231    0.783047    0.465577     0.007504
AU2308   AU        0.462718    0.821032    0.431369     0.007504
AU2309   AU        0.499761    0.783700    0.432635     0.007504
AU2310   AU        0.500528    0.821836    0.466383     0.007504
AU2311   AU        0.535903    0.785654    0.466636     0.007504
PT2312   PT        0.534842    0.820382    0.428673     0.004505
AU2313   AU        0.569703    0.784337    0.430398     0.007504
AU2314   AU        0.571114    0.820762    0.466434     0.007504
AU2315   AU        0.607982    0.787319    0.469900     0.007504
PT2316   PT        0.604638    0.822100    0.432743     0.004505
PT2317   PT        0.642194    0.788613    0.431698     0.004505
AU2318   AU        0.672503    0.784612    0.470416     0.007504
AU2319   AU        0.358559    0.857564    0.432551     0.007504
AU2320   AU        0.392419    0.858429    0.468799     0.007504
PT2321   PT        0.427380    0.858399    0.433797     0.004505
PT2322   PT        0.461535    0.856814    0.469825     0.004505
AU2323   AU        0.497900    0.855752    0.433652     0.007504
AU2324   AU        0.253521    0.039579    0.501455     0.007504
PT2325   PT        0.286155    0.042776    0.536297     0.004505
PT2326   PT        0.321364    0.043789    0.503816     0.004505
PT2327   PT        0.358301    0.041877    0.538384     0.004505
AU2328   AU        0.393737    0.041446    0.504165     0.007504
AU2329   AU        0.433332    0.002204    0.507635     0.007504
AU2330   AU        0.431171    0.040475    0.536658     0.007504
PT2331   PT        0.466226    0.040011    0.504037     0.004505
AU2332   AU        0.498547    0.040626    0.538426     0.007504
PT2333   PT        0.533639    0.039628    0.502855     0.004505
PT2334   PT        0.569304    0.041341    0.535754     0.004505
AU2335   AU        0.604761    0.039997    0.503007     0.007504
AU2336   AU        0.181973    0.113069    0.501747     0.007504
AU2337   AU        0.214432    0.074545    0.502785     0.007504
AU2338   AU        0.214424    0.111539    0.539373     0.007504
AU2339   AU        0.248258    0.075268    0.539848     0.007504
AU2340   AU        0.252587    0.112630    0.502848     0.007504
AU2341   AU        0.288431    0.077882    0.501949     0.007504
PT2342   PT        0.288898    0.112672    0.535894     0.004505
PT2343   PT        0.323864    0.076631    0.536867     0.004505
PT2344   PT        0.323846    0.112976    0.501093     0.004505
AU2345   AU        0.358670    0.077993    0.501277     0.007504
PT2346   PT        0.356977    0.111853    0.539050     0.004505
PT2347   PT        0.393070    0.075590    0.536896     0.004505
AU2348   AU        0.393599    0.114778    0.503039     0.007504
AU2349   AU        0.428308    0.075565    0.503565     0.007504
PT2350   PT        0.429529    0.113523    0.536710     0.004505
PT2351   PT        0.465284    0.078360    0.536138     0.004505
PT2352   PT        0.463447    0.114756    0.501429     0.004505
AU2353   AU        0.500728    0.077065    0.502495     0.007504
PT2354   PT        0.500188    0.113726    0.535939     0.004505
PT2355   PT        0.534771    0.078252    0.535333     0.004505
AU2356   AU        0.534209    0.112934    0.501770     0.007504
PT2357   PT        0.570516    0.076352    0.501811     0.004505
AU2358   AU        0.569117    0.114310    0.537023     0.007504
AU2359   AU        0.607572    0.075260    0.536937     0.007504
PT2360   PT        0.603717    0.112073    0.500561     0.004505
AU2361   AU        0.639048    0.077197    0.499650     0.007504
AU2362   AU        0.641623    0.112418    0.536121     0.007504
PT2363   PT        0.673026    0.110693    0.501765     0.004505
AU2364   AU        0.108895    0.182736    0.501012     0.007504
AU2365   AU        0.146108    0.146395    0.501261     0.007504
AU2366   AU        0.143925    0.183731    0.535591     0.007504
AU2367   AU        0.178307    0.148046    0.538403     0.007504
PT2368   PT        0.183640    0.181567    0.500730     0.004505
AU2369   AU        0.219286    0.147789    0.502771     0.007504
PT2370   PT        0.219094    0.184232    0.535947     0.004505
PT2371   PT        0.252472    0.148517    0.536691     0.004505
AU2372   AU        0.253900    0.183954    0.501964     0.007504
PT2373   PT        0.289924    0.149335    0.502414     0.004505
AU2374   AU        0.289022    0.182516    0.537479     0.007504
AU2375   AU        0.324385    0.147866    0.535925     0.007504
AU2376   AU        0.324147    0.185135    0.501590     0.007504
PT2377   PT        0.358590    0.148589    0.501326     0.004505
PT2378   PT        0.358635    0.185107    0.537650     0.004505
PT2379   PT        0.392587    0.148886    0.538063     0.004505
AU2380   AU        0.393471    0.182873    0.500558     0.007504
PT2381   PT        0.428297    0.147161    0.499847     0.004505
PT2382   PT        0.429929    0.183165    0.534472     0.004505
PT2383   PT        0.463854    0.149200    0.535253     0.004505
AU2384   AU        0.462588    0.182054    0.501873     0.007504
AU2385   AU        0.499806    0.149068    0.500834     0.007504
AU2386   AU        0.498609    0.182941    0.535360     0.007504
PT2387   PT        0.534073    0.147827    0.533544     0.004505
PT2388   PT        0.535855    0.183665    0.501696     0.004505
PT2389   PT        0.568718    0.149071    0.501033     0.004505
PT2390   PT        0.568603    0.185268    0.535869     0.004505
AU2391   AU        0.605139    0.146419    0.537792     0.007504
PT2392   PT        0.604489    0.180899    0.502640     0.004505
AU2393   AU        0.639581    0.148242    0.500018     0.007504
AU2394   AU        0.638830    0.181605    0.537186     0.007504
PT2395   PT        0.674526    0.147200    0.536145     0.004505
PT2396   PT        0.675988    0.184437    0.501156     0.004505
AU2397   AU        0.711336    0.145303    0.503914     0.007504
AU2398   AU        0.709363    0.185008    0.537382     0.007504
AU2399   AU        0.744435    0.184291    0.501242     0.007504
PT2400   PT        0.032101    0.253787    0.501339     0.004505
AU2401   AU        0.075476    0.218339    0.502741     0.007504
AU2402   AU        0.076229    0.256026    0.535923     0.007504
AU2403   AU        0.109906    0.218547    0.536721     0.007504
AU2404   AU        0.110711    0.252885    0.499186     0.007504
AU2405   AU        0.146950    0.219614    0.500315     0.007504
AU2406   AU        0.147865    0.253080    0.535416     0.007504
AU2407   AU        0.184261    0.219012    0.535687     0.007504
PT2408   PT        0.183195    0.253649    0.501339     0.004505
AU2409   AU        0.219021    0.219564    0.500244     0.007504
PT2410   PT        0.216338    0.253136    0.535797     0.004505
PT2411   PT        0.252434    0.219030    0.536879     0.004505
PT2412   PT        0.252892    0.252633    0.501663     0.004505
PT2413   PT        0.288418    0.219457    0.501370     0.004505
AU2414   AU        0.287243    0.254522    0.536296     0.007504
PT2415   PT        0.323445    0.218064    0.536387     0.004505
AU2416   AU        0.322585    0.252972    0.502847     0.007504
PT2417   PT        0.359671    0.219002    0.501760     0.004505
PT2418   PT        0.358796    0.254609    0.534982     0.004505
PT2419   PT        0.393502    0.218142    0.536656     0.004505
PT2420   PT        0.392566    0.254390    0.500684     0.004505
PT2421   PT        0.427575    0.219143    0.502739     0.004505
PT2422   PT        0.428013    0.253243    0.535542     0.004505
AU2423   AU        0.464674    0.218834    0.535726     0.007504
PT2424   PT        0.464978    0.254873    0.500500     0.004505
PT2425   PT        0.500363    0.218910    0.501313     0.004505
PT2426   PT        0.499239    0.253010    0.536225     0.004505
PT2427   PT        0.533967    0.217628    0.536903     0.004505
PT2428   PT        0.533907    0.253023    0.499308     0.004505
AU2429   AU        0.569437    0.218083    0.500314     0.007504
PT2430   PT        0.569490    0.254668    0.535472     0.004505
PT2431   PT        0.605626    0.218803    0.535038     0.004505
PT2432   PT        0.604122    0.253676    0.501306     0.004505
PT2433   PT        0.638506    0.218642    0.499970     0.004505
PT2434   PT        0.639690    0.252202    0.535989     0.004505
PT2435   PT        0.675616    0.217589    0.537317     0.004505
PT2436   PT        0.674155    0.251312    0.500979     0.004505
AU2437   AU        0.712302    0.219027    0.499723     0.007504
PT2438   PT        0.709323    0.253994    0.536547     0.004505
AU2439   AU        0.745598    0.219993    0.536567     0.007504
PT2440   PT        0.745787    0.252697    0.499936     0.004505
AU2441   AU        0.784218    0.218924    0.497066     0.007504
AU2442   AU        0.781731    0.251834    0.536084     0.007504
AU2443   AU        0.821582    0.254078    0.502833     0.007504
AU2444   AU        0.037085    0.287238    0.542837     0.007504
AU2445   AU        0.037955    0.319523    0.505421     0.007504
AU2446   AU        0.074066    0.287961    0.499136     0.007504
PT2447   PT        0.078427    0.323773    0.537617     0.004505
PT2448   PT        0.113992    0.288248    0.533845     0.004505
AU2449   AU        0.112662    0.324100    0.501974     0.007504
PT2450   PT        0.148703    0.288668    0.500676     0.004505
AU2451   AU        0.147532    0.324373    0.536601     0.007504
PT2452   PT        0.182727    0.286298    0.537831     0.004505
AU2453   AU        0.183099    0.323858    0.500516     0.007504
PT2454   PT        0.217598    0.287945    0.501744     0.004505
PT2455   PT        0.217583    0.324084    0.536573     0.004505
PT2456   PT        0.251085    0.288311    0.536026     0.004505
PT2457   PT        0.253382    0.323887    0.501710     0.004505
PT2458   PT        0.288403    0.287538    0.501794     0.004505
PT2459   PT        0.289512    0.322682    0.536514     0.004505
PT2460   PT        0.324045    0.287888    0.536398     0.004505
PT2461   PT        0.323020    0.323044    0.502130     0.004505
PT2462   PT        0.358562    0.290189    0.500932     0.004505
PT2463   PT        0.357183    0.323532    0.536284     0.004505
PT2464   PT        0.393387    0.288955    0.536121     0.004505
AU2465   AU        0.392357    0.323954    0.501217     0.007504
PT2466   PT        0.429669    0.287513    0.501247     0.004505
PT2467   PT        0.428596    0.323324    0.536564     0.004505
PT2468   PT        0.464235    0.287838    0.534892     0.004505
PT2469   PT        0.464762    0.323179    0.500511     0.004505
PT2470   PT        0.498777    0.289748    0.500599     0.004505
PT2471   PT        0.498648    0.323891    0.534658     0.004505
PT2472   PT        0.534013    0.287069    0.535540     0.004505
PT2473   PT        0.535466    0.323122    0.500804     0.004505
AU2474   AU        0.569515    0.288752    0.500731     0.007504
PT2475   PT        0.569774    0.322552    0.536686     0.004505
AU2476   AU        0.605636    0.287766    0.536286     0.007504
AU2477   AU        0.604307    0.324697    0.500269     0.007504
PT2478   PT        0.639471    0.288360    0.499996     0.004505
PT2479   PT        0.637955    0.322480    0.536783     0.004505
PT2480   PT        0.674949    0.289432    0.535289     0.004505
PT2481   PT        0.674011    0.323558    0.499813     0.004505
AU2482   AU        0.711243    0.288002    0.499652     0.007504
PT2483   PT        0.708990    0.322954    0.534951     0.004505
AU2484   AU        0.744823    0.287579    0.534946     0.007504
PT2485   PT        0.745051    0.324040    0.498042     0.004505
AU2486   AU        0.781818    0.288341    0.500699     0.007504
AU2487   AU        0.780794    0.322857    0.535936     0.007504
AU2488   AU        0.818572    0.287313    0.536540     0.007504
AU2489   AU        0.819263    0.321052    0.500425     0.007504
PT2490   PT        0.001432    0.397060    0.537932     0.004505
AU2491   AU        0.039042    0.391615    0.504784     0.007504
PT2492   PT        0.074336    0.358227    0.502054     0.004505
PT2493   PT        0.075513    0.391979    0.538316     0.004505
PT2494   PT        0.111912    0.359762    0.536304     0.004505
PT2495   PT        0.111257    0.393096    0.501873     0.004505
AU2496   AU        0.146222    0.358535    0.502051     0.007504
PT2497   PT        0.146511    0.395178    0.537140     0.004505
AU2498   AU        0.181870    0.358517    0.537653     0.007504
AU2499   AU        0.181308    0.394375    0.503042     0.007504
AU2500   AU        0.216949    0.359424    0.501982     0.007504
PT2501   PT        0.217545    0.392613    0.536279     0.004505
PT2502   PT        0.252329    0.358477    0.536071     0.004505
PT2503   PT        0.253194    0.394098    0.501476     0.004505
PT2504   PT        0.287636    0.358797    0.500878     0.004505
PT2505   PT        0.287856    0.392905    0.536415     0.004505
PT2506   PT        0.322765    0.357531    0.535534     0.004505
PT2507   PT        0.322648    0.392744    0.499931     0.004505
PT2508   PT        0.357451    0.359490    0.501911     0.004505
AU2509   AU        0.357816    0.393326    0.536511     0.007504
PT2510   PT        0.394069    0.359245    0.536995     0.004505
PT2511   PT        0.392687    0.394799    0.501582     0.004505
PT2512   PT        0.427647    0.357738    0.501035     0.004505
AU2513   AU        0.427104    0.394565    0.538108     0.007504
AU2514   AU        0.464182    0.358286    0.536225     0.007504
PT2515   PT        0.463063    0.394540    0.501211     0.004505
PT2516   PT        0.499987    0.357834    0.500552     0.004505
PT2517   PT        0.500373    0.392591    0.536139     0.004505
PT2518   PT        0.533755    0.357157    0.536025     0.004505
PT2519   PT        0.535319    0.395422    0.499965     0.004505
AU2520   AU        0.568756    0.358432    0.500525     0.007504
PT2521   PT        0.568184    0.393953    0.535832     0.004505
AU2522   AU        0.605057    0.359026    0.536589     0.007504
PT2523   PT        0.604680    0.393279    0.499500     0.004505
AU2524   AU        0.638804    0.358858    0.501476     0.007504
PT2525   PT        0.640072    0.393886    0.535264     0.004505
PT2526   PT        0.673919    0.359104    0.535177     0.004505
PT2527   PT        0.675993    0.393651    0.500406     0.004505
PT2528   PT        0.709638    0.358194    0.501944     0.004505
PT2529   PT        0.711489    0.393842    0.535816     0.004505
AU2530   AU        0.743971    0.359085    0.535368     0.007504
AU2531   AU        0.746533    0.392255    0.499492     0.007504
AU2532   AU        0.780621    0.357063    0.499183     0.007504
PT2533   PT        0.779199    0.392880    0.537115     0.004505
PT2534   PT        0.815601    0.355800    0.536724     0.004505
PT2535   PT        0.816200    0.392788    0.502809     0.004505
PT2536   PT        0.002136    0.430729    0.504797     0.004505
AU2537   AU        0.040647    0.428188    0.536604     0.007504
PT2538   PT        0.037347    0.466801    0.503058     0.004505
PT2539   PT        0.075437    0.427157    0.502680     0.004505
PT2540   PT        0.076243    0.463638    0.536648     0.004505
PT2541   PT        0.112677    0.428211    0.534601     0.004505
PT2542   PT        0.111461    0.464330    0.503097     0.004505
PT2543   PT        0.149572    0.429547    0.500657     0.004505
AU2544   AU        0.147484    0.463726    0.536681     0.007504
AU2545   AU        0.183585    0.427388    0.537250     0.007504
PT2546   PT        0.182618    0.463859    0.502104     0.004505
AU2547   AU        0.219143    0.427430    0.501386     0.007504
AU2548   AU        0.214818    0.464167    0.536664     0.007504
PT2549   PT        0.252652    0.428545    0.536176     0.004505
AU2550   AU        0.252379    0.463847    0.502161     0.007504
PT2551   PT        0.288117    0.428358    0.500715     0.004505
PT2552   PT        0.286705    0.463836    0.536804     0.004505
PT2553   PT        0.322893    0.428755    0.536395     0.004505
AU2554   AU        0.322235    0.464194    0.504036     0.007504
PT2555   PT        0.357039    0.428721    0.500519     0.004505
PT2556   PT        0.358265    0.461472    0.535599     0.004505
PT2557   PT        0.393541    0.429602    0.536665     0.004505
PT2558   PT        0.393175    0.462338    0.500971     0.004505
PT2559   PT        0.427137    0.429524    0.500658     0.004505
PT2560   PT        0.429138    0.463087    0.536913     0.004505
PT2561   PT        0.462530    0.426771    0.536790     0.004505
PT2562   PT        0.465446    0.464323    0.501934     0.004505
PT2563   PT        0.500090    0.429191    0.501566     0.004505
AU2564   AU        0.499457    0.463960    0.538024     0.007504
AU2565   AU        0.534750    0.429139    0.536478     0.007504
AU2566   AU        0.535039    0.464041    0.500967     0.007504
AU2567   AU        0.569936    0.427888    0.502187     0.007504
AU2568   AU        0.569493    0.463289    0.536010     0.007504
AU2569   AU        0.604027    0.429393    0.537480     0.007504
PT2570   PT        0.604000    0.464766    0.501638     0.004505
PT2571   PT        0.638947    0.429520    0.501280     0.004505
PT2572   PT        0.640146    0.462050    0.538831     0.004505
PT2573   PT        0.675725    0.429518    0.536430     0.004505
AU2574   AU        0.675004    0.464480    0.501705     0.007504
PT2575   PT        0.710598    0.428916    0.501394     0.004505
AU2576   AU        0.709135    0.463905    0.534971     0.007504
PT2577   PT        0.745337    0.428716    0.536216     0.004505
PT2578   PT        0.743158    0.461889    0.500845     0.004505
PT2579   PT        0.778942    0.429260    0.502277     0.004505
PT2580   PT        0.780126    0.463182    0.537712     0.004505
AU2581   AU        0.815246    0.427495    0.536835     0.007504
AU2582   AU        0.816414    0.461982    0.502790     0.007504
AU2583   AU        0.892043    0.469225    0.503496     0.007504
AU2584   AU        0.040328    0.501296    0.536948     0.007504
AU2585   AU        0.037730    0.538870    0.504033     0.007504
AU2586   AU        0.077207    0.501938    0.503044     0.007504
AU2587   AU        0.077129    0.536005    0.536597     0.007504
PT2588   PT        0.111801    0.500159    0.537575     0.004505
AU2589   AU        0.112579    0.536120    0.502048     0.007504
AU2590   AU        0.148991    0.497964    0.501357     0.007504
PT2591   PT        0.147752    0.533499    0.536843     0.004505
PT2592   PT        0.182330    0.498287    0.536779     0.004505
PT2593   PT        0.183401    0.532958    0.501372     0.004505
AU2594   AU        0.217417    0.498750    0.502509     0.007504
PT2595   PT        0.218608    0.532979    0.537142     0.004505
PT2596   PT        0.252097    0.498123    0.536355     0.004505
AU2597   AU        0.253431    0.534477    0.502169     0.007504
PT2598   PT        0.289567    0.499630    0.501139     0.004505
PT2599   PT        0.287283    0.534733    0.535323     0.004505
PT2600   PT        0.322203    0.499184    0.537854     0.004505
AU2601   AU        0.325328    0.533880    0.502256     0.007504
AU2602   AU        0.357878    0.497778    0.502117     0.007504
AU2603   AU        0.358336    0.531501    0.537024     0.007504
PT2604   PT        0.392819    0.497498    0.537739     0.004505
PT2605   PT        0.393729    0.532668    0.501319     0.004505
PT2606   PT        0.430358    0.497031    0.502697     0.004505
AU2607   AU        0.429067    0.532520    0.538422     0.007504
AU2608   AU        0.464269    0.499937    0.538001     0.007504
PT2609   PT        0.462560    0.533610    0.502011     0.004505
PT2610   PT        0.498817    0.497233    0.501358     0.004505
AU2611   AU        0.497946    0.536303    0.536047     0.007504
AU2612   AU        0.533497    0.499684    0.538086     0.007504
PT2613   PT        0.533666    0.532985    0.501157     0.004505
PT2614   PT        0.569654    0.498403    0.500346     0.004505
AU2615   AU        0.568207    0.535131    0.537840     0.007504
PT2616   PT        0.603214    0.498583    0.537145     0.004505
PT2617   PT        0.604478    0.533388    0.501090     0.004505
AU2618   AU        0.640446    0.500023    0.502268     0.007504
PT2619   PT        0.640031    0.532541    0.536746     0.004505
PT2620   PT        0.675347    0.497567    0.536279     0.004505
PT2621   PT        0.675154    0.532566    0.499157     0.004505
AU2622   AU        0.708963    0.499149    0.500766     0.007504
AU2623   AU        0.709267    0.535176    0.536107     0.007504
AU2624   AU        0.744237    0.497439    0.535531     0.007504
PT2625   PT        0.744906    0.533746    0.499576     0.004505
AU2626   AU        0.779833    0.495777    0.499128     0.007504
PT2627   PT        0.782812    0.534728    0.535635     0.004505
AU2628   AU        0.813135    0.497117    0.536002     0.007504
AU2629   AU        0.819288    0.533545    0.503274     0.007504
PT2630   PT        0.037241    0.573961    0.540188     0.004505
AU2631   AU        0.034675    0.607460    0.499667     0.007504
AU2632   AU        0.072770    0.573949    0.503702     0.007504
AU2633   AU        0.075410    0.608463    0.534317     0.007504
AU2634   AU        0.110645    0.570316    0.536935     0.007504
PT2635   PT        0.111863    0.604092    0.501176     0.004505
AU2636   AU        0.146846    0.570699    0.501423     0.007504
PT2637   PT        0.144216    0.606189    0.535360     0.004505
AU2638   AU        0.182346    0.571879    0.537710     0.007504
AU2639   AU        0.182593    0.604071    0.500458     0.007504
PT2640   PT        0.217615    0.568329    0.502884     0.004505
PT2641   PT        0.219233    0.603263    0.537887     0.004505
PT2642   PT        0.252292    0.569162    0.538602     0.004505
AU2643   AU        0.251567    0.603367    0.501613     0.007504
PT2644   PT        0.290166    0.569531    0.502106     0.004505
AU2645   AU        0.287766    0.603478    0.536380     0.007504
PT2646   PT        0.323102    0.568610    0.537501     0.004505
PT2647   PT        0.323609    0.605181    0.501990     0.004505
PT2648   PT        0.359318    0.568169    0.501970     0.004505
AU2649   AU        0.358167    0.604342    0.537026     0.007504
PT2650   PT        0.392645    0.568236    0.537712     0.004505
AU2651   AU        0.393078    0.602076    0.501149     0.007504
PT2652   PT        0.427744    0.567098    0.502039     0.004505
PT2653   PT        0.428454    0.602932    0.536617     0.004505
AU2654   AU        0.462682    0.569418    0.535839     0.007504
PT2655   PT        0.463444    0.602442    0.502374     0.004505
AU2656   AU        0.499994    0.568534    0.500521     0.007504
PT2657   PT        0.498924    0.603153    0.537306     0.004505
AU2658   AU        0.533228    0.569579    0.536309     0.007504
AU2659   AU        0.534528    0.602849    0.502563     0.007504
AU2660   AU        0.569204    0.568987    0.503142     0.007504
PT2661   PT        0.570276    0.604002    0.536902     0.004505
AU2662   AU        0.605496    0.569087    0.537587     0.007504
PT2663   PT        0.603724    0.604346    0.502301     0.004505
PT2664   PT        0.639108    0.567670    0.501822     0.004505
AU2665   AU        0.642273    0.604273    0.537620     0.007504
AU2666   AU        0.676313    0.569158    0.535227     0.007504
AU2667   AU        0.676372    0.605794    0.499000     0.007504
AU2668   AU        0.710997    0.569542    0.501907     0.007504
AU2669   AU        0.713321    0.605429    0.534603     0.007504
AU2670   AU        0.748659    0.568372    0.535317     0.007504
AU2671   AU        0.747384    0.605485    0.500712     0.007504
AU2672   AU        0.782707    0.571226    0.500455     0.007504
AU2673   AU        0.781353    0.605093    0.537702     0.007504
AU2674   AU        0.816585    0.569223    0.537483     0.007504
AU2675   AU        0.820918    0.608440    0.507719     0.007504
AU2676   AU        0.071410    0.642873    0.499338     0.007504
AU2677   AU        0.107063    0.645260    0.534959     0.007504
AU2678   AU        0.107871    0.678513    0.499947     0.007504
AU2679   AU        0.143676    0.640277    0.500104     0.007504
AU2680   AU        0.142498    0.678428    0.535441     0.007504
AU2681   AU        0.181800    0.641858    0.534306     0.007504
AU2682   AU        0.181094    0.676200    0.500932     0.007504
AU2683   AU        0.219396    0.639406    0.501920     0.007504
PT2684   PT        0.219490    0.675297    0.534538     0.004505
AU2685   AU        0.253777    0.639259    0.538040     0.007504
AU2686   AU        0.254576    0.677369    0.501374     0.007504
AU2687   AU        0.288598    0.640578    0.502528     0.007504
AU2688   AU        0.288387    0.676166    0.536975     0.007504
PT2689   PT        0.324674    0.638722    0.536177     0.004505
AU2690   AU        0.323547    0.679000    0.500765     0.007504
PT2691   PT        0.358445    0.638835    0.500840     0.004505
PT2692   PT        0.355559    0.675750    0.539313     0.004505
PT2693   PT        0.392689    0.637846    0.537821     0.004505
AU2694   AU        0.391977    0.676114    0.503782     0.007504
PT2695   PT        0.427012    0.639174    0.501413     0.004505
AU2696   AU        0.428145    0.674628    0.539130     0.007504
AU2697   AU        0.461856    0.638758    0.536003     0.007504
PT2698   PT        0.462706    0.677439    0.501964     0.004505
AU2699   AU        0.497715    0.640279    0.503729     0.007504
AU2700   AU        0.497362    0.675942    0.534992     0.007504
PT2701   PT        0.533693    0.639018    0.535586     0.004505
AU2702   AU        0.533130    0.673863    0.502129     0.007504
AU2703   AU        0.569060    0.637740    0.501497     0.007504
AU2704   AU        0.566192    0.673148    0.537519     0.007504
AU2705   AU        0.602076    0.638767    0.538868     0.007504
AU2706   AU        0.603520    0.674357    0.502466     0.007504
AU2707   AU        0.639541    0.640353    0.503009     0.007504
AU2708   AU        0.641787    0.677652    0.537721     0.007504
AU2709   AU        0.678309    0.641366    0.537166     0.007504
AU2710   AU        0.678443    0.677366    0.503323     0.007504
AU2711   AU        0.711290    0.640325    0.497049     0.007504
PT2712   PT        0.713968    0.678676    0.535331     0.004505
AU2713   AU        0.747596    0.640755    0.533628     0.007504
PT2714   PT        0.747967    0.676040    0.498458     0.004505
AU2715   AU        0.784780    0.640546    0.500310     0.007504
PT2716   PT        0.141331    0.714155    0.497133     0.004505
AU2717   AU        0.176512    0.713421    0.535615     0.007504
PT2718   PT        0.176813    0.747660    0.500235     0.004505
AU2719   AU        0.218254    0.714389    0.501707     0.007504
PT2720   PT        0.213707    0.748152    0.534688     0.004505
AU2721   AU        0.254004    0.715787    0.539490     0.007504
AU2722   AU        0.253447    0.748036    0.500465     0.007504
PT2723   PT        0.288057    0.713639    0.501083     0.004505
AU2724   AU        0.288075    0.749429    0.541379     0.007504
AU2725   AU        0.322819    0.711615    0.541332     0.007504
AU2726   AU        0.322415    0.748552    0.505034     0.007504
AU2727   AU        0.357709    0.712772    0.504198     0.007504
PT2728   PT        0.359205    0.748566    0.537418     0.004505
PT2729   PT        0.392156    0.710585    0.540318     0.004505
AU2730   AU        0.395073    0.746886    0.503086     0.007504
PT2731   PT        0.425783    0.711194    0.503787     0.004505
AU2732   AU        0.429242    0.747345    0.539384     0.007504
AU2733   AU        0.460831    0.712220    0.537442     0.007504
AU2734   AU        0.464166    0.747550    0.501913     0.007504
AU2735   AU        0.498015    0.710962    0.502437     0.007504
AU2736   AU        0.498369    0.745358    0.536836     0.007504
AU2737   AU        0.534796    0.711569    0.537744     0.007504
PT2738   PT        0.532738    0.746873    0.502583     0.004505
AU2739   AU        0.566510    0.709596    0.501598     0.007504
PT2740   PT        0.570264    0.750070    0.536452     0.004505
PT2741   PT        0.603146    0.712565    0.536814     0.004505
AU2742   AU        0.604227    0.748350    0.501179     0.007504
PT2743   PT        0.638871    0.712976    0.501496     0.004505
AU2744   AU        0.640231    0.750112    0.537033     0.007504
AU2745   AU        0.676162    0.712501    0.536702     0.007504
AU2746   AU        0.676709    0.747381    0.502312     0.007504
PT2747   PT        0.712830    0.713824    0.499459     0.004505
AU2748   AU        0.214346    0.784967    0.501553     0.007504
AU2749   AU        0.249338    0.783731    0.537709     0.007504
PT2750   PT        0.247306    0.818685    0.498842     0.004505
PT2751   PT        0.284162    0.785915    0.503767     0.004505
AU2752   AU        0.219930    0.824553    0.539578     0.007504
AU2753   AU        0.321847    0.784777    0.537603     0.007504
PT2754   PT        0.325109    0.819985    0.503439     0.004505
AU2755   AU        0.358534    0.783451    0.504937     0.007504
PT2756   PT        0.320579    0.858101    0.539394     0.004505
AU2757   AU        0.397334    0.784555    0.538155     0.007504
PT2758   PT        0.392991    0.817270    0.501656     0.004505
PT2759   PT        0.428057    0.781002    0.502290     0.004505
PT2760   PT        0.431363    0.820549    0.536899     0.004505
AU2761   AU        0.464765    0.783400    0.536804     0.007504
PT2762   PT        0.465480    0.817039    0.501093     0.004505
PT2763   PT        0.500488    0.782684    0.499897     0.004505
PT2764   PT        0.502123    0.821278    0.533996     0.004505
PT2765   PT        0.533996    0.784023    0.535964     0.004505
PT2766   PT        0.535362    0.823907    0.501066     0.004505
PT2767   PT        0.568042    0.784869    0.501522     0.004505
PT2768   PT        0.567517    0.817172    0.536879     0.004505
AU2769   AU        0.606267    0.785822    0.535599     0.007504
PT2770   PT        0.603013    0.821925    0.504138     0.004505
PT2771   PT        0.646238    0.820593    0.533286     0.004505
PT2772   PT        0.428833    0.856464    0.505758     0.004505
PT2773   PT        0.324663    0.042164    0.571124     0.004505
AU2774   AU        0.359400    0.037916    0.607810     0.007504
AU2775   AU        0.394266    0.039110    0.571822     0.007504
AU2776   AU        0.426395    0.037566    0.608097     0.007504
AU2777   AU        0.465588    0.038765    0.575355     0.007504
AU2778   AU        0.501449    0.037893    0.608994     0.007504
PT2779   PT        0.534453    0.039554    0.569875     0.004505
AU2780   AU        0.180913    0.112724    0.572807     0.007504
PT2781   PT        0.219248    0.111770    0.608215     0.004505
PT2782   PT        0.253598    0.069180    0.610843     0.004505
PT2783   PT        0.253540    0.114468    0.570941     0.004505
PT2784   PT        0.288661    0.079913    0.571021     0.004505
AU2785   AU        0.287308    0.113683    0.607790     0.007504
PT2786   PT        0.325147    0.076313    0.607932     0.004505
PT2787   PT        0.322148    0.114354    0.573734     0.004505
AU2788   AU        0.357241    0.078526    0.572454     0.007504
PT2789   PT        0.357803    0.114475    0.606714     0.004505
AU2790   AU        0.393179    0.076089    0.606698     0.007504
PT2791   PT        0.395011    0.112222    0.571892     0.004505
AU2792   AU        0.429863    0.074742    0.570925     0.007504
AU2793   AU        0.427208    0.110974    0.608637     0.007504
AU2794   AU        0.461332    0.074907    0.607112     0.007504
AU2795   AU        0.464657    0.112960    0.571847     0.007504
AU2796   AU        0.498623    0.074892    0.573386     0.007504
AU2797   AU        0.498534    0.112601    0.606874     0.007504
AU2798   AU        0.534620    0.077356    0.607825     0.007504
AU2799   AU        0.533963    0.113297    0.570877     0.007504
AU2800   AU        0.569492    0.079661    0.570534     0.007504
PT2801   PT        0.570742    0.113431    0.606521     0.004505
PT2802   PT        0.608103    0.071381    0.604806     0.004505
PT2803   PT        0.607005    0.112631    0.571685     0.004505
AU2804   AU        0.637824    0.109409    0.609333     0.007504
PT2805   PT        0.673903    0.113367    0.573434     0.004505
PT2806   PT        0.110955    0.183253    0.573879     0.004505
PT2807   PT        0.142821    0.146601    0.572487     0.004505
AU2808   AU        0.142525    0.182734    0.608861     0.007504
AU2809   AU        0.179151    0.149197    0.607916     0.007504
PT2810   PT        0.181272    0.183516    0.570603     0.004505
AU2811   AU        0.215184    0.149417    0.570171     0.007504
AU2812   AU        0.215542    0.183814    0.607167     0.007504
AU2813   AU        0.252412    0.148095    0.608235     0.007504
AU2814   AU        0.252977    0.182862    0.571490     0.007504
AU2815   AU        0.288637    0.147273    0.570480     0.007504
PT2816   PT        0.287588    0.182713    0.605104     0.004505
AU2817   AU        0.324384    0.148713    0.605730     0.007504
PT2818   PT        0.324211    0.183672    0.571344     0.004505
PT2819   PT        0.357741    0.148794    0.571272     0.004505
PT2820   PT        0.358826    0.184356    0.605042     0.004505
PT2821   PT        0.396092    0.147992    0.607839     0.004505
PT2822   PT        0.394779    0.184759    0.571618     0.004505
AU2823   AU        0.429920    0.149082    0.569370     0.007504
AU2824   AU        0.428818    0.183447    0.607015     0.007504
PT2825   PT        0.462649    0.148802    0.606734     0.004505
PT2826   PT        0.462917    0.183362    0.570571     0.004505
PT2827   PT        0.498046    0.148927    0.569346     0.004505
AU2828   AU        0.498342    0.184060    0.605821     0.007504
PT2829   PT        0.533441    0.147441    0.605445     0.004505
AU2830   AU        0.534309    0.182105    0.571100     0.007504
AU2831   AU        0.566314    0.147731    0.570787     0.007504
PT2832   PT        0.567857    0.182735    0.605620     0.004505
AU2833   AU        0.604132    0.148642    0.606852     0.007504
PT2834   PT        0.604920    0.184654    0.570583     0.004505
AU2835   AU        0.638997    0.148708    0.573925     0.007504
PT2836   PT        0.639832    0.184410    0.605760     0.004505
AU2837   AU        0.674941    0.147664    0.608205     0.007504
AU2838   AU        0.675363    0.183372    0.572096     0.007504
AU2839   AU        0.710880    0.145344    0.571156     0.007504
PT2840   PT        0.711245    0.182245    0.604859     0.004505
PT2841   PT        0.745162    0.180801    0.569142     0.004505
AU2842   AU        0.071516    0.253232    0.612952     0.007504
PT2843   PT        0.108176    0.218399    0.607471     0.004505
PT2844   PT        0.113686    0.253765    0.570715     0.004505
AU2845   AU        0.145295    0.217565    0.572194     0.007504
PT2846   PT        0.148262    0.253884    0.606071     0.004505
AU2847   AU        0.180227    0.217842    0.609245     0.007504
AU2848   AU        0.181932    0.252522    0.571942     0.007504
PT2849   PT        0.219112    0.218197    0.570955     0.004505
AU2850   AU        0.216162    0.252666    0.607147     0.007504
PT2851   PT        0.251957    0.219202    0.607367     0.004505
AU2852   AU        0.251296    0.253348    0.571110     0.007504
PT2853   PT        0.287742    0.218732    0.570946     0.004505
PT2854   PT        0.288972    0.255588    0.604348     0.004505
PT2855   PT        0.321666    0.220493    0.605589     0.004505
AU2856   AU        0.323310    0.253769    0.570040     0.007504
PT2857   PT        0.358081    0.219046    0.571413     0.004505
PT2858   PT        0.359291    0.253559    0.606086     0.004505
PT2859   PT        0.394137    0.217739    0.606492     0.004505
PT2860   PT        0.395838    0.253453    0.571576     0.004505
PT2861   PT        0.429198    0.219518    0.570085     0.004505
PT2862   PT        0.428624    0.253909    0.607109     0.004505
PT2863   PT        0.464087    0.218947    0.607978     0.004505
PT2864   PT        0.464271    0.251712    0.571531     0.004505
AU2865   AU        0.498644    0.218225    0.572616     0.007504
PT2866   PT        0.499366    0.252762    0.606922     0.004505
AU2867   AU        0.535253    0.217176    0.605388     0.007504
PT2868   PT        0.532498    0.253000    0.571180     0.004505
PT2869   PT        0.569104    0.219878    0.571435     0.004505
AU2870   AU        0.568649    0.252860    0.605665     0.007504
PT2871   PT        0.603767    0.218887    0.604983     0.004505
AU2872   AU        0.604644    0.253598    0.572900     0.007504
AU2873   AU        0.639235    0.218935    0.571383     0.007504
AU2874   AU        0.637784    0.253440    0.605553     0.007504
PT2875   PT        0.674833    0.218436    0.605239     0.004505
AU2876   AU        0.674317    0.254261    0.572148     0.007504
PT2877   PT        0.711415    0.217633    0.572570     0.004505
AU2878   AU        0.711905    0.254240    0.605529     0.007504
AU2879   AU        0.752201    0.216856    0.605645     0.007504
AU2880   AU        0.746144    0.253948    0.569511     0.007504
PT2881   PT        0.823282    0.257266    0.577163     0.004505
AU2882   AU        0.040464    0.324960    0.573935     0.007504
AU2883   AU        0.076866    0.288643    0.572881     0.007504
AU2884   AU        0.076340    0.323044    0.605842     0.007504
AU2885   AU        0.109624    0.287041    0.608688     0.007504
PT2886   PT        0.113719    0.323681    0.571051     0.004505
AU2887   AU        0.146123    0.289103    0.572815     0.007504
PT2888   PT        0.146903    0.322358    0.606676     0.004505
AU2889   AU        0.182116    0.288972    0.606326     0.007504
AU2890   AU        0.181325    0.323873    0.571788     0.007504
PT2891   PT        0.217432    0.286766    0.571136     0.004505
PT2892   PT        0.217878    0.322482    0.608021     0.004505
PT2893   PT        0.252980    0.288012    0.606558     0.004505
PT2894   PT        0.252796    0.322786    0.570691     0.004505
PT2895   PT        0.287262    0.289066    0.571641     0.004505
AU2896   AU        0.287143    0.323584    0.605654     0.007504
PT2897   PT        0.321735    0.290021    0.606450     0.004505
PT2898   PT        0.322215    0.323401    0.571573     0.004505
PT2899   PT        0.357027    0.290139    0.570705     0.004505
PT2900   PT        0.358733    0.324315    0.605497     0.004505
AU2901   AU        0.394899    0.288656    0.605240     0.007504
PT2902   PT        0.394108    0.322929    0.571032     0.004505
PT2903   PT        0.430425    0.288898    0.571231     0.004505
PT2904   PT        0.428502    0.323832    0.606222     0.004505
AU2905   AU        0.465824    0.287932    0.606741     0.007504
AU2906   AU        0.464380    0.323118    0.570370     0.007504
PT2907   PT        0.496986    0.287643    0.569754     0.004505
PT2908   PT        0.497935    0.324957    0.605969     0.004505
PT2909   PT        0.532956    0.287658    0.605541     0.004505
PT2910   PT        0.532059    0.322847    0.569860     0.004505
PT2911   PT        0.567592    0.287978    0.571575     0.004505
AU2912   AU        0.569577    0.323348    0.605872     0.007504
PT2913   PT        0.605644    0.288477    0.605399     0.004505
PT2914   PT        0.605279    0.323754    0.572524     0.004505
AU2915   AU        0.639361    0.288467    0.570146     0.007504
AU2916   AU        0.640653    0.325273    0.605078     0.007504
AU2917   AU        0.673048    0.289065    0.606213     0.007504
PT2918   PT        0.675586    0.322634    0.569950     0.004505
AU2919   AU        0.709199    0.288640    0.569982     0.007504
AU2920   AU        0.710049    0.322641    0.604107     0.007504
AU2921   AU        0.747101    0.287668    0.604274     0.007504
AU2922   AU        0.743583    0.324361    0.570099     0.007504
AU2923   AU        0.782647    0.287501    0.570368     0.007504
AU2924   AU        0.781494    0.322771    0.607018     0.007504
AU2925   AU        0.819046    0.326709    0.573524     0.007504
PT2926   PT        0.038156    0.356789    0.609549     0.004505
AU2927   AU        0.036430    0.392470    0.573155     0.007504
AU2928   AU        0.074488    0.360222    0.574300     0.007504
AU2929   AU        0.073677    0.393875    0.609560     0.007504
AU2930   AU        0.112112    0.359277    0.606116     0.007504
AU2931   AU        0.109268    0.395246    0.572420     0.007504
AU2932   AU        0.146908    0.359578    0.572151     0.007504
AU2933   AU        0.146369    0.394809    0.607368     0.007504
PT2934   PT        0.183332    0.358674    0.604882     0.004505
AU2935   AU        0.181746    0.394297    0.571007     0.007504
AU2936   AU        0.219413    0.358468    0.571645     0.007504
PT2937   PT        0.219369    0.393462    0.606345     0.004505
PT2938   PT        0.251931    0.359020    0.605886     0.004505
AU2939   AU        0.253641    0.393654    0.571820     0.007504
PT2940   PT        0.287674    0.357859    0.571517     0.004505
PT2941   PT        0.288234    0.393518    0.606575     0.004505
PT2942   PT        0.322295    0.358547    0.605292     0.004505
PT2943   PT        0.322940    0.394380    0.570259     0.004505
PT2944   PT        0.358672    0.358841    0.572816     0.004505
PT2945   PT        0.358250    0.393940    0.606603     0.004505
PT2946   PT        0.393276    0.357872    0.606069     0.004505
AU2947   AU        0.393283    0.393878    0.572510     0.007504
PT2948   PT        0.428801    0.358474    0.571254     0.004505
AU2949   AU        0.428378    0.393714    0.605995     0.007504
PT2950   PT        0.464140    0.359333    0.606601     0.004505
PT2951   PT        0.463563    0.393942    0.572595     0.004505
PT2952   PT        0.500002    0.358309    0.571545     0.004505
PT2953   PT        0.499908    0.393086    0.606734     0.004505
AU2954   AU        0.534140    0.359282    0.604915     0.007504
PT2955   PT        0.533965    0.394293    0.570567     0.004505
PT2956   PT        0.569299    0.358041    0.571313     0.004505
PT2957   PT        0.570365    0.392198    0.607279     0.004505
PT2958   PT        0.604864    0.357744    0.607739     0.004505
PT2959   PT        0.605183    0.392871    0.571887     0.004505
AU2960   AU        0.641976    0.358689    0.571633     0.007504
PT2961   PT        0.639631    0.392947    0.605626     0.004505
AU2962   AU        0.675870    0.357299    0.607159     0.007504
AU2963   AU        0.674895    0.393460    0.571577     0.007504
PT2964   PT        0.710704    0.358257    0.569421     0.004505
AU2965   AU        0.710747    0.394221    0.605034     0.007504
PT2966   PT        0.745581    0.358175    0.605322     0.004505
PT2967   PT        0.745118    0.391521    0.570955     0.004505
AU2968   AU        0.780978    0.358039    0.572695     0.007504
AU2969   AU        0.781652    0.392681    0.606150     0.007504
PT2970   PT        0.820029    0.359607    0.610156     0.004505
AU2971   AU        0.817009    0.392400    0.572987     0.007504
AU2972   AU        0.037213    0.430620    0.610471     0.007504
AU2973   AU        0.039560    0.465620    0.573089     0.007504
AU2974   AU        0.072433    0.429071    0.571989     0.007504
PT2975   PT        0.072644    0.464247    0.609149     0.004505
PT2976   PT        0.110051    0.427800    0.608890     0.004505
AU2977   AU        0.111354    0.460728    0.573313     0.007504
PT2978   PT        0.146214    0.428096    0.572373     0.004505
AU2979   AU        0.145319    0.464195    0.608363     0.007504
PT2980   PT        0.181268    0.431336    0.606340     0.004505
PT2981   PT        0.180542    0.464022    0.573994     0.004505
PT2982   PT        0.218730    0.429918    0.572283     0.004505
AU2983   AU        0.218184    0.462646    0.607480     0.007504
PT2984   PT        0.253782    0.429656    0.606357     0.004505
PT2985   PT        0.252713    0.464499    0.571675     0.004505
AU2986   AU        0.287528    0.428692    0.572437     0.007504
PT2987   PT        0.289746    0.462545    0.605827     0.004505
AU2988   AU        0.323387    0.427897    0.605173     0.007504
AU2989   AU        0.324371    0.463844    0.571854     0.007504
PT2990   PT        0.359178    0.429943    0.571583     0.004505
PT2991   PT        0.360156    0.462014    0.607318     0.004505
PT2992   PT        0.393994    0.427425    0.605733     0.004505
AU2993   AU        0.392974    0.463550    0.571854     0.007504
PT2994   PT        0.427117    0.428026    0.571579     0.004505
PT2995   PT        0.427111    0.463052    0.607676     0.004505
PT2996   PT        0.463873    0.429187    0.607392     0.004505
PT2997   PT        0.463199    0.462569    0.572019     0.004505
PT2998   PT        0.498104    0.428458    0.569898     0.004505
PT2999   PT        0.500306    0.462029    0.605875     0.004505
AU3000   AU        0.533717    0.427565    0.605432     0.007504
PT3001   PT        0.534886    0.464533    0.572756     0.004505
PT3002   PT        0.569744    0.426778    0.571193     0.004505
PT3003   PT        0.569766    0.464677    0.607994     0.004505
AU3004   AU        0.604838    0.428567    0.606714     0.007504
AU3005   AU        0.604670    0.465174    0.569829     0.007504
PT3006   PT        0.639204    0.427290    0.570873     0.004505
PT3007   PT        0.640767    0.463970    0.605774     0.004505
AU3008   AU        0.674032    0.427805    0.605252     0.007504
PT3009   PT        0.675446    0.463401    0.571401     0.004505
AU3010   AU        0.711017    0.429839    0.571090     0.007504
PT3011   PT        0.711317    0.465551    0.606315     0.004505
AU3012   AU        0.746806    0.427841    0.606723     0.007504
PT3013   PT        0.745056    0.462783    0.573246     0.004505
PT3014   PT        0.781678    0.430172    0.572522     0.004505
AU3015   AU        0.782654    0.464501    0.609277     0.007504
PT3016   PT        0.819567    0.430050    0.609147     0.004505
PT3017   PT        0.817757    0.464620    0.571166     0.004505
PT3018   PT        0.037118    0.502210    0.607532     0.004505
AU3019   AU        0.041563    0.535081    0.571243     0.007504
AU3020   AU        0.075286    0.497783    0.572940     0.007504
PT3021   PT        0.073314    0.536824    0.610994     0.004505
AU3022   AU        0.108984    0.497239    0.610640     0.007504
PT3023   PT        0.108896    0.531643    0.572796     0.004505
PT3024   PT        0.147299    0.498398    0.571935     0.004505
PT3025   PT        0.146434    0.534044    0.606557     0.004505
PT3026   PT        0.182660    0.497786    0.606250     0.004505
AU3027   AU        0.182468    0.535979    0.572622     0.007504
AU3028   AU        0.217018    0.497834    0.570780     0.007504
AU3029   AU        0.218960    0.534124    0.606777     0.007504
PT3030   PT        0.253487    0.497073    0.606328     0.004505
AU3031   AU        0.252656    0.532877    0.571004     0.007504
PT3032   PT        0.287931    0.499373    0.572400     0.004505
PT3033   PT        0.286018    0.533916    0.607869     0.004505
PT3034   PT        0.325672    0.497142    0.606449     0.004505
AU3035   AU        0.320688    0.534036    0.572452     0.007504
PT3036   PT        0.359246    0.498553    0.570635     0.004505
PT3037   PT        0.359113    0.533088    0.607341     0.004505
AU3038   AU        0.393951    0.499444    0.607352     0.007504
PT3039   PT        0.395766    0.532496    0.570836     0.004505
PT3040   PT        0.430156    0.497451    0.572328     0.004505
PT3041   PT        0.429960    0.533714    0.606268     0.004505
PT3042   PT        0.464155    0.497735    0.607952     0.004505
AU3043   AU        0.463369    0.533120    0.572494     0.007504
AU3044   AU        0.499355    0.500403    0.573615     0.007504
PT3045   PT        0.498857    0.534262    0.608707     0.004505
PT3046   PT        0.535695    0.500598    0.605955     0.004505
PT3047   PT        0.533714    0.534991    0.570641     0.004505
PT3048   PT        0.569927    0.497712    0.571995     0.004505
AU3049   AU        0.567813    0.536234    0.607946     0.007504
AU3050   AU        0.602785    0.500890    0.607837     0.007504
AU3051   AU        0.603693    0.534201    0.571323     0.007504
PT3052   PT        0.642269    0.497552    0.571684     0.004505
AU3053   AU        0.642444    0.533619    0.605926     0.007504
AU3054   AU        0.675958    0.499480    0.606524     0.007504
AU3055   AU        0.678307    0.535843    0.570739     0.007504
PT3056   PT        0.709178    0.499414    0.569345     0.004505
AU3057   AU        0.711822    0.532536    0.606535     0.007504
AU3058   AU        0.746961    0.499478    0.606580     0.007504
PT3059   PT        0.748169    0.533237    0.569354     0.004505
PT3060   PT        0.781183    0.498915    0.573979     0.004505
AU3061   AU        0.781970    0.535675    0.606956     0.007504
AU3062   AU        0.820044    0.498034    0.608905     0.007504
AU3063   AU        0.815131    0.530868    0.570474     0.007504
AU3064   AU        0.076127    0.569153    0.570148     0.007504
AU3065   AU        0.071522    0.604032    0.608905     0.007504
PT3066   PT        0.109075    0.571085    0.607033     0.004505
AU3067   AU        0.109861    0.607792    0.573087     0.007504
AU3068   AU        0.146264    0.571075    0.571915     0.007504
PT3069   PT        0.143441    0.606171    0.609580     0.004505
AU3070   AU        0.180543    0.570097    0.608888     0.007504
AU3071   AU        0.181828    0.607238    0.573650     0.007504
PT3072   PT        0.218727    0.570750    0.572785     0.004505
PT3073   PT        0.218818    0.606104    0.610479     0.004505
AU3074   AU        0.251874    0.569242    0.608184     0.007504
AU3075   AU        0.253322    0.602751    0.573609     0.007504
PT3076   PT        0.286553    0.568871    0.573217     0.004505
PT3077   PT        0.288963    0.602719    0.608869     0.004505
PT3078   PT        0.325199    0.569226    0.607657     0.004505
AU3079   AU        0.323017    0.603028    0.572274     0.007504
AU3080   AU        0.357297    0.567008    0.572980     0.007504
PT3081   PT        0.360319    0.604887    0.609179     0.004505
AU3082   AU        0.393764    0.568045    0.608519     0.007504
PT3083   PT        0.391216    0.603273    0.572644     0.004505
AU3084   AU        0.428835    0.569486    0.571210     0.007504
PT3085   PT        0.428391    0.604615    0.605755     0.004505
AU3086   AU        0.464315    0.570821    0.607471     0.007504
AU3087   AU        0.464556    0.604825    0.571279     0.007504
AU3088   AU        0.499094    0.570399    0.572573     0.007504
PT3089   PT        0.497600    0.605522    0.607513     0.004505
AU3090   AU        0.532716    0.569825    0.608770     0.007504
AU3091   AU        0.532938    0.604527    0.570720     0.007504
AU3092   AU        0.568769    0.570638    0.572292     0.007504
AU3093   AU        0.571388    0.603410    0.607090     0.007504
PT3094   PT        0.605161    0.566890    0.608305     0.004505
AU3095   AU        0.604101    0.603751    0.572147     0.007504
AU3096   AU        0.641102    0.568696    0.572438     0.007504
AU3097   AU        0.641055    0.606532    0.608009     0.007504
AU3098   AU        0.676851    0.572903    0.607507     0.007504
AU3099   AU        0.679420    0.605659    0.570957     0.007504
AU3100   AU        0.713414    0.569058    0.572171     0.007504
AU3101   AU        0.711023    0.607018    0.610563     0.007504
AU3102   AU        0.744597    0.570159    0.612201     0.007504
PT3103   PT        0.745946    0.609397    0.575696     0.004505
PT3104   PT        0.782885    0.572188    0.576223     0.004505
AU3105   AU        0.782123    0.605425    0.615251     0.007504
PT3106   PT        0.103809    0.637943    0.610182     0.004505
PT3107   PT        0.107610    0.676136    0.574261     0.004505
PT3108   PT        0.144473    0.642804    0.571517     0.004505
AU3109   AU        0.141728    0.676006    0.609065     0.007504
PT3110   PT        0.181258    0.643780    0.608487     0.004505
AU3111   AU        0.181345    0.675841    0.568964     0.007504
AU3112   AU        0.217811    0.640092    0.571918     0.007504
AU3113   AU        0.216134    0.680306    0.605256     0.007504
AU3114   AU        0.251958    0.640062    0.608602     0.007504
AU3115   AU        0.250738    0.676874    0.571791     0.007504
PT3116   PT        0.289490    0.636619    0.572487     0.004505
AU3117   AU        0.286944    0.675422    0.605553     0.007504
AU3118   AU        0.323558    0.637676    0.608126     0.007504
PT3119   PT        0.321864    0.675131    0.572298     0.004505
AU3120   AU        0.358910    0.637987    0.571874     0.007504
AU3121   AU        0.358866    0.674524    0.606500     0.007504
PT3122   PT        0.394183    0.639847    0.607110     0.004505
PT3123   PT        0.395140    0.674966    0.573138     0.004505
AU3124   AU        0.426984    0.638744    0.572525     0.007504
AU3125   AU        0.429441    0.676200    0.609305     0.007504
AU3126   AU        0.462984    0.640987    0.606808     0.007504
AU3127   AU        0.464571    0.676825    0.573203     0.007504
PT3128   PT        0.497595    0.639402    0.570118     0.004505
PT3129   PT        0.498559    0.675407    0.606975     0.004505
PT3130   PT        0.535114    0.639976    0.605325     0.004505
AU3131   AU        0.532354    0.673911    0.572037     0.007504
AU3132   AU        0.568842    0.639649    0.573960     0.007504
AU3133   AU        0.567534    0.675640    0.607121     0.007504
AU3134   AU        0.606734    0.641414    0.606801     0.007504
AU3135   AU        0.606409    0.676455    0.570161     0.007504
AU3136   AU        0.641503    0.640079    0.571261     0.007504
PT3137   PT        0.640641    0.680185    0.605274     0.004505
PT3138   PT        0.677466    0.642049    0.605575     0.004505
PT3139   PT        0.676539    0.679253    0.572879     0.004505
AU3140   AU        0.712250    0.647478    0.571375     0.007504
PT3141   PT        0.711903    0.679108    0.609575     0.004505
PT3142   PT        0.745023    0.644056    0.609693     0.004505
AU3143   AU        0.747613    0.679048    0.575234     0.007504
AU3144   AU        0.144792    0.709865    0.572255     0.007504
AU3145   AU        0.180493    0.714900    0.604887     0.007504
AU3146   AU        0.175425    0.748147    0.568192     0.007504
AU3147   AU        0.216614    0.712163    0.570988     0.007504
PT3148   PT        0.216830    0.748985    0.607061     0.004505
PT3149   PT        0.251359    0.716415    0.611808     0.004505
PT3150   PT        0.253481    0.748370    0.575760     0.004505
AU3151   AU        0.285869    0.712093    0.576347     0.007504
PT3152   PT        0.290177    0.750231    0.607698     0.004505
AU3153   AU        0.324576    0.712839    0.609151     0.007504
AU3154   AU        0.325800    0.750560    0.574742     0.007504
PT3155   PT        0.358334    0.712906    0.575116     0.004505
PT3156   PT        0.360051    0.748355    0.609323     0.004505
AU3157   AU        0.393089    0.711059    0.609536     0.007504
PT3158   PT        0.393748    0.748486    0.574983     0.004505
AU3159   AU        0.428989    0.709960    0.575172     0.007504
AU3160   AU        0.427962    0.748763    0.607142     0.007504
AU3161   AU        0.465458    0.714190    0.607563     0.007504
PT3162   PT        0.465683    0.747094    0.572217     0.004505
AU3163   AU        0.500938    0.710760    0.573052     0.007504
PT3164   PT        0.500589    0.748326    0.608273     0.004505
AU3165   AU        0.532742    0.711373    0.607377     0.007504
AU3166   AU        0.533968    0.747211    0.570854     0.007504
AU3167   AU        0.568406    0.712958    0.572530     0.007504
PT3168   PT        0.568858    0.748265    0.608880     0.004505
PT3169   PT        0.603007    0.714466    0.609255     0.004505
AU3170   AU        0.604488    0.748765    0.574910     0.007504
PT3171   PT        0.639940    0.716326    0.573705     0.004505
PT3172   PT        0.636188    0.784981    0.574036     0.004505
AU3173   AU        0.677617    0.715529    0.610296     0.007504
PT3174   PT        0.674002    0.753562    0.573460     0.004505
PT3175   PT        0.712039    0.715235    0.577226     0.004505
PT3176   PT        0.254842    0.784284    0.608825     0.004505
PT3177   PT        0.285722    0.786217    0.572943     0.004505
PT3178   PT        0.291110    0.786644    0.642841     0.004505
PT3179   PT        0.318290    0.821928    0.573298     0.004505
PT3180   PT        0.360360    0.785093    0.573631     0.004505
AU3181   AU        0.357578    0.820392    0.611239     0.007504
AU3182   AU        0.396087    0.785369    0.608159     0.007504
PT3183   PT        0.397371    0.823196    0.577252     0.004505
AU3184   AU        0.432195    0.786093    0.573481     0.007504
AU3185   AU        0.435684    0.821256    0.610272     0.007504
AU3186   AU        0.465292    0.781191    0.607195     0.007504
PT3187   PT        0.468069    0.821095    0.570985     0.004505
PT3188   PT        0.500652    0.784315    0.570845     0.004505
PT3189   PT        0.500157    0.818723    0.610831     0.004505
AU3190   AU        0.533211    0.785187    0.606326     0.007504
AU3191   AU        0.533631    0.821273    0.572048     0.007504
AU3192   AU        0.571409    0.787509    0.572763     0.007504
AU3193   AU        0.601858    0.785717    0.612994     0.007504
AU3194   AU        0.250396    0.109501    0.644555     0.007504
AU3195   AU        0.288507    0.112998    0.678349     0.007504
AU3196   AU        0.321796    0.114224    0.642219     0.007504
AU3197   AU        0.359439    0.074266    0.643021     0.007504
PT3198   PT        0.358026    0.114698    0.677149     0.004505
AU3199   AU        0.392301    0.073962    0.681849     0.007504
PT3200   PT        0.394676    0.110270    0.641142     0.004505
AU3201   AU        0.426357    0.071284    0.643859     0.007504
AU3202   AU        0.427793    0.109003    0.678295     0.007504
PT3203   PT        0.464088    0.075567    0.681859     0.004505
AU3204   AU        0.462957    0.108505    0.644567     0.007504
AU3205   AU        0.496875    0.072253    0.643086     0.007504
AU3206   AU        0.500186    0.108727    0.680046     0.007504
AU3207   AU        0.533925    0.113446    0.641196     0.007504
PT3208   PT        0.568546    0.112129    0.677320     0.004505
PT3209   PT        0.604552    0.109560    0.642729     0.004505
AU3210   AU        0.181140    0.181935    0.644693     0.007504
PT3211   PT        0.218252    0.148457    0.642295     0.004505
AU3212   AU        0.216328    0.184026    0.676641     0.007504
AU3213   AU        0.251129    0.145670    0.680222     0.007504
PT3214   PT        0.250470    0.183722    0.641483     0.004505
PT3215   PT        0.287700    0.146978    0.642806     0.004505
AU3216   AU        0.287950    0.182782    0.675716     0.007504
AU3217   AU        0.324725    0.150373    0.675535     0.007504
PT3218   PT        0.324025    0.184949    0.640273     0.004505
AU3219   AU        0.360172    0.149331    0.641929     0.007504
PT3220   PT        0.358636    0.184375    0.676625     0.004505
PT3221   PT        0.395259    0.147667    0.676261     0.004505
PT3222   PT        0.393770    0.184070    0.642229     0.004505
AU3223   AU        0.430629    0.145685    0.642281     0.007504
PT3224   PT        0.428585    0.182638    0.676181     0.004505
AU3225   AU        0.466820    0.147568    0.678321     0.007504
PT3226   PT        0.465198    0.183200    0.642611     0.004505
AU3227   AU        0.498826    0.145965    0.641450     0.007504
AU3228   AU        0.498981    0.182804    0.675442     0.007504
PT3229   PT        0.533500    0.149604    0.677468     0.004505
PT3230   PT        0.533077    0.184486    0.640810     0.004505
AU3231   AU        0.569086    0.149260    0.643171     0.007504
PT3232   PT        0.568912    0.184370    0.678574     0.004505
AU3233   AU        0.604282    0.147757    0.679199     0.007504
AU3234   AU        0.604584    0.184200    0.642333     0.007504
PT3235   PT        0.638989    0.145188    0.642990     0.004505
AU3236   AU        0.641835    0.179415    0.678292     0.007504
AU3237   AU        0.675863    0.182673    0.639824     0.007504
AU3238   AU        0.110988    0.253186    0.643253     0.007504
AU3239   AU        0.146589    0.217854    0.643576     0.007504
AU3240   AU        0.144687    0.255759    0.679105     0.007504
PT3241   PT        0.182105    0.218734    0.677598     0.004505
PT3242   PT        0.183269    0.251859    0.642990     0.004505
PT3243   PT        0.216161    0.217201    0.641260     0.004505
PT3244   PT        0.218317    0.254802    0.674648     0.004505
PT3245   PT        0.253487    0.218982    0.674228     0.004505
PT3246   PT        0.253349    0.254296    0.641142     0.004505
AU3247   AU        0.288149    0.219429    0.640896     0.007504
PT3248   PT        0.288506    0.253828    0.676031     0.004505
PT3249   PT        0.322041    0.220233    0.675071     0.004505
PT3250   PT        0.324849    0.255207    0.641901     0.004505
AU3251   AU        0.359402    0.218602    0.641329     0.007504
AU3252   AU        0.359654    0.254843    0.675452     0.007504
PT3253   PT        0.392979    0.219670    0.675791     0.004505
AU3254   AU        0.394046    0.253907    0.642854     0.007504
PT3255   PT        0.428741    0.218660    0.642787     0.004505
PT3256   PT        0.429659    0.254185    0.676237     0.004505
PT3257   PT        0.463306    0.217787    0.676492     0.004505
PT3258   PT        0.463234    0.256017    0.641084     0.004505
AU3259   AU        0.500300    0.218199    0.641684     0.007504
PT3260   PT        0.498817    0.252730    0.675699     0.004505
PT3261   PT        0.534989    0.218886    0.678863     0.004505
PT3262   PT        0.535249    0.254776    0.640204     0.004505
AU3263   AU        0.569699    0.216599    0.641230     0.007504
AU3264   AU        0.568936    0.254244    0.679333     0.007504
PT3265   PT        0.603544    0.219227    0.676994     0.004505
AU3266   AU        0.601365    0.252124    0.641009     0.007504
PT3267   PT        0.639295    0.218624    0.640118     0.004505
PT3268   PT        0.638900    0.254298    0.679060     0.004505
AU3269   AU        0.674377    0.219463    0.675779     0.007504
PT3270   PT        0.674039    0.253747    0.638957     0.004505
PT3271   PT        0.713658    0.217274    0.639036     0.004505
PT3272   PT        0.708977    0.253314    0.676232     0.004505
PT3273   PT        0.748385    0.254738    0.641777     0.004505
AU3274   AU        0.108476    0.288446    0.678328     0.007504
PT3275   PT        0.112689    0.324349    0.640935     0.004505
PT3276   PT        0.147936    0.288996    0.640719     0.004505
PT3277   PT        0.146401    0.323473    0.679767     0.004505
AU3278   AU        0.183705    0.288388    0.676554     0.007504
AU3279   AU        0.183402    0.325232    0.639935     0.007504
PT3280   PT        0.216380    0.287872    0.641723     0.004505
PT3281   PT        0.218377    0.324098    0.676565     0.004505
PT3282   PT        0.252955    0.289472    0.675742     0.004505
PT3283   PT        0.253565    0.324366    0.641057     0.004505
PT3284   PT        0.286792    0.287707    0.642030     0.004505
PT3285   PT        0.287552    0.323175    0.677211     0.004505
AU3286   AU        0.322415    0.288399    0.676240     0.007504
PT3287   PT        0.323448    0.323350    0.640634     0.004505
AU3288   AU        0.358008    0.289041    0.640588     0.007504
PT3289   PT        0.358194    0.324289    0.675180     0.004505
AU3290   AU        0.394610    0.288572    0.675713     0.007504
PT3291   PT        0.394043    0.322419    0.641404     0.004505
PT3292   PT        0.429365    0.289429    0.639104     0.004505
PT3293   PT        0.428973    0.323766    0.674611     0.004505
PT3294   PT        0.462570    0.289045    0.676281     0.004505
PT3295   PT        0.464432    0.324080    0.641913     0.004505
AU3296   AU        0.499552    0.288806    0.642595     0.007504
PT3297   PT        0.498062    0.323597    0.676234     0.004505
PT3298   PT        0.532682    0.289582    0.678181     0.004505
PT3299   PT        0.533688    0.324256    0.642366     0.004505
PT3300   PT        0.568523    0.289011    0.641950     0.004505
AU3301   AU        0.569584    0.323660    0.676042     0.007504
AU3302   AU        0.603652    0.286871    0.674863     0.007504
PT3303   PT        0.604836    0.323381    0.639657     0.004505
AU3304   AU        0.639558    0.288914    0.640950     0.007504
PT3305   PT        0.640075    0.323420    0.673999     0.004505
AU3306   AU        0.673948    0.289461    0.677284     0.007504
AU3307   AU        0.674255    0.324286    0.640896     0.007504
AU3308   AU        0.708352    0.287659    0.640999     0.007504
PT3309   PT        0.710626    0.324429    0.676871     0.004505
AU3310   AU        0.745226    0.288133    0.679334     0.007504
AU3311   AU        0.742753    0.322289    0.641401     0.007504
AU3312   AU        0.076926    0.356221    0.644095     0.007504
AU3313   AU        0.072820    0.392401    0.680865     0.007504
PT3314   PT        0.110591    0.359033    0.679545     0.004505
AU3315   AU        0.108642    0.394886    0.645365     0.007504
AU3316   AU        0.146276    0.357520    0.643084     0.007504
PT3317   PT        0.146039    0.394195    0.678997     0.004505
AU3318   AU        0.181192    0.360292    0.678673     0.007504
AU3319   AU        0.182521    0.392672    0.640659     0.007504
AU3320   AU        0.218584    0.359105    0.640689     0.007504
AU3321   AU        0.216876    0.392864    0.676449     0.007504
AU3322   AU        0.253501    0.359827    0.676288     0.007504
AU3323   AU        0.254361    0.394965    0.640013     0.007504
PT3324   PT        0.288461    0.357681    0.640122     0.004505
PT3325   PT        0.288223    0.394189    0.675355     0.004505
PT3326   PT        0.325052    0.358262    0.677848     0.004505
AU3327   AU        0.324791    0.392556    0.641786     0.007504
PT3328   PT        0.357069    0.357893    0.641034     0.004505
AU3329   AU        0.358444    0.394353    0.677027     0.007504
PT3330   PT        0.393822    0.357858    0.675974     0.004505
PT3331   PT        0.393222    0.391792    0.640466     0.004505
PT3332   PT        0.427812    0.358368    0.641960     0.004505
PT3333   PT        0.428934    0.394086    0.675711     0.004505
PT3334   PT        0.465218    0.357929    0.675237     0.004505
AU3335   AU        0.462533    0.392223    0.642409     0.007504
PT3336   PT        0.498991    0.358283    0.641147     0.004505
PT3337   PT        0.500252    0.392195    0.675667     0.004505
PT3338   PT        0.535046    0.357716    0.678905     0.004505
PT3339   PT        0.534257    0.393678    0.640399     0.004505
PT3340   PT        0.568750    0.359322    0.641410     0.004505
AU3341   AU        0.569562    0.393174    0.675660     0.007504
AU3342   AU        0.604725    0.357424    0.674807     0.007504
PT3343   PT        0.605204    0.392934    0.642191     0.004505
AU3344   AU        0.639751    0.358176    0.641147     0.007504
AU3345   AU        0.639210    0.394791    0.677965     0.007504
AU3346   AU        0.675703    0.358789    0.675505     0.007504
AU3347   AU        0.675012    0.392774    0.640395     0.007504
AU3348   AU        0.711234    0.359042    0.642037     0.007504
AU3349   AU        0.714338    0.394909    0.679116     0.007504
PT3350   PT        0.747930    0.360675    0.679253     0.004505
PT3351   PT        0.747785    0.394492    0.643100     0.004505
AU3352   AU        0.779854    0.357458    0.643366     0.007504
AU3353   AU        0.784992    0.392731    0.680391     0.007504
PT3354   PT        0.071388    0.429147    0.646831     0.004505
AU3355   AU        0.066823    0.463202    0.680846     0.007504
AU3356   AU        0.107163    0.431643    0.679344     0.007504
PT3357   PT        0.108344    0.462821    0.643490     0.004505
AU3358   AU        0.144626    0.429873    0.644747     0.007504
AU3359   AU        0.147057    0.463550    0.677866     0.007504
AU3360   AU        0.181673    0.428164    0.679055     0.007504
AU3361   AU        0.180929    0.462954    0.642208     0.007504
AU3362   AU        0.214807    0.429094    0.642818     0.007504
AU3363   AU        0.216285    0.463093    0.676112     0.007504
AU3364   AU        0.251999    0.427893    0.675513     0.007504
PT3365   PT        0.251349    0.465160    0.641526     0.004505
PT3366   PT        0.289828    0.430263    0.640806     0.004505
AU3367   AU        0.288112    0.463073    0.676174     0.007504
AU3368   AU        0.322775    0.427606    0.675552     0.007504
PT3369   PT        0.324003    0.463382    0.642196     0.004505
PT3370   PT        0.359229    0.429233    0.642015     0.004505
AU3371   AU        0.357720    0.464858    0.677347     0.007504
AU3372   AU        0.394040    0.427779    0.676409     0.007504
AU3373   AU        0.395120    0.463597    0.642911     0.007504
PT3374   PT        0.428870    0.427858    0.641824     0.004505
PT3375   PT        0.429676    0.462445    0.676394     0.004505
PT3376   PT        0.462569    0.428882    0.675525     0.004505
AU3377   AU        0.464316    0.463786    0.640796     0.007504
PT3378   PT        0.497481    0.427546    0.641587     0.004505
PT3379   PT        0.497708    0.462668    0.675512     0.004505
PT3380   PT        0.533639    0.429444    0.674501     0.004505
PT3381   PT        0.533235    0.465483    0.642367     0.004505
PT3382   PT        0.569113    0.427838    0.642762     0.004505
AU3383   AU        0.568898    0.463528    0.677268     0.007504
PT3384   PT        0.604192    0.428072    0.677383     0.004505
PT3385   PT        0.603966    0.465245    0.642830     0.004505
AU3386   AU        0.639810    0.427937    0.642365     0.007504
PT3387   PT        0.642347    0.464933    0.675855     0.004505
PT3388   PT        0.675692    0.427945    0.677865     0.004505
PT3389   PT        0.677526    0.462453    0.642526     0.004505
AU3390   AU        0.711670    0.427728    0.640324     0.007504
AU3391   AU        0.712849    0.463527    0.679270     0.007504
AU3392   AU        0.750438    0.428876    0.680503     0.007504
AU3393   AU        0.747312    0.461691    0.641046     0.007504
PT3394   PT        0.785297    0.427901    0.643229     0.004505
AU3395   AU        0.788018    0.461037    0.677570     0.007504
AU3396   AU        0.071435    0.499395    0.643850     0.007504
PT3397   PT        0.107450    0.497805    0.679975     0.004505
AU3398   AU        0.109763    0.535003    0.642202     0.007504
AU3399   AU        0.147875    0.499113    0.641801     0.007504
AU3400   AU        0.143478    0.534460    0.678197     0.007504
PT3401   PT        0.183215    0.501222    0.679269     0.004505
AU3402   AU        0.184024    0.533936    0.641649     0.007504
PT3403   PT        0.217069    0.499231    0.643000     0.004505
PT3404   PT        0.217153    0.533386    0.680623     0.004505
AU3405   AU        0.249256    0.499405    0.677734     0.007504
AU3406   AU        0.252942    0.533954    0.642590     0.007504
AU3407   AU        0.287774    0.497734    0.641089     0.007504
AU3408   AU        0.285724    0.533229    0.677681     0.007504
PT3409   PT        0.322099    0.498687    0.674838     0.004505
AU3410   AU        0.322463    0.534879    0.642728     0.007504
PT3411   PT        0.359892    0.497492    0.642393     0.004505
PT3412   PT        0.357753    0.531898    0.677201     0.004505
AU3413   AU        0.393775    0.498464    0.676246     0.007504
AU3414   AU        0.392675    0.532869    0.641915     0.007504
PT3415   PT        0.430251    0.497677    0.641020     0.004505
AU3416   AU        0.426575    0.533270    0.678150     0.007504
PT3417   PT        0.462416    0.498864    0.677618     0.004505
PT3418   PT        0.462292    0.534589    0.640540     0.004505
AU3419   AU        0.499174    0.498865    0.642058     0.007504
AU3420   AU        0.498109    0.532750    0.676786     0.007504
AU3421   AU        0.533556    0.500149    0.678201     0.007504
AU3422   AU        0.532966    0.534673    0.643208     0.007504
PT3423   PT        0.568295    0.499518    0.643442     0.004505
AU3424   AU        0.568663    0.536550    0.680084     0.007504
AU3425   AU        0.604702    0.497279    0.678179     0.007504
AU3426   AU        0.605233    0.532469    0.643189     0.007504
AU3427   AU        0.638947    0.497179    0.640361     0.007504
PT3428   PT        0.638073    0.533111    0.677773     0.004505
AU3429   AU        0.675134    0.498700    0.678089     0.007504
AU3430   AU        0.674160    0.534117    0.643075     0.007504
PT3431   PT        0.712229    0.497338    0.643437     0.004505
PT3432   PT        0.708429    0.534301    0.678658     0.004505
AU3433   AU        0.750551    0.498987    0.682125     0.007504
AU3434   AU        0.783473    0.536826    0.683543     0.007504
AU3435   AU        0.780990    0.500872    0.641967     0.007504
AU3436   AU        0.106255    0.567412    0.681588     0.007504
AU3437   AU        0.107275    0.602242    0.644505     0.007504
AU3438   AU        0.146314    0.571455    0.644263     0.007504
PT3439   PT        0.143361    0.605503    0.682725     0.004505
AU3440   AU        0.178816    0.571615    0.678953     0.007504
AU3441   AU        0.180272    0.605190    0.643268     0.007504
PT3442   PT        0.217358    0.567919    0.645160     0.004505
AU3443   AU        0.218309    0.606129    0.676805     0.007504
AU3444   AU        0.254209    0.569685    0.679321     0.007504
PT3445   PT        0.254064    0.603570    0.644063     0.004505
PT3446   PT        0.287754    0.568879    0.643608     0.004505
AU3447   AU        0.288389    0.604999    0.681280     0.007504
AU3448   AU        0.322962    0.568094    0.679793     0.007504
PT3449   PT        0.323759    0.606239    0.643752     0.004505
PT3450   PT        0.359432    0.569949    0.642848     0.004505
PT3451   PT        0.359187    0.605126    0.680900     0.004505
PT3452   PT        0.393259    0.569144    0.676049     0.004505
AU3453   AU        0.394961    0.606436    0.646363     0.007504
PT3454   PT        0.428280    0.569807    0.643130     0.004505
AU3455   AU        0.430445    0.606150    0.678640     0.007504
AU3456   AU        0.462761    0.570505    0.680450     0.007504
AU3457   AU        0.465106    0.607045    0.643899     0.007504
PT3458   PT        0.498101    0.568577    0.644110     0.004505
AU3459   AU        0.499989    0.605926    0.678553     0.007504
AU3460   AU        0.534250    0.568962    0.680028     0.007504
PT3461   PT        0.532532    0.606949    0.642784     0.004505
AU3462   AU        0.568595    0.569066    0.642815     0.007504
AU3463   AU        0.567251    0.603398    0.679902     0.007504
AU3464   AU        0.606296    0.571865    0.678453     0.007504
PT3465   PT        0.602853    0.604090    0.641891     0.004505
PT3466   PT        0.640805    0.567750    0.641933     0.004505
PT3467   PT        0.640224    0.609342    0.676614     0.004505
AU3468   AU        0.674134    0.569762    0.679548     0.007504
AU3469   AU        0.675806    0.608733    0.642865     0.007504
AU3470   AU        0.709767    0.572778    0.645728     0.007504
AU3471   AU        0.710283    0.606981    0.683345     0.007504
AU3472   AU        0.819383    0.574215    0.752839     0.007504
AU3473   AU        0.743545    0.612851    0.645763     0.007504
AU3474   AU        0.141506    0.639443    0.644325     0.007504
AU3475   AU        0.180415    0.638506    0.677084     0.007504
AU3476   AU        0.179231    0.677938    0.641940     0.007504
PT3477   PT        0.214923    0.643196    0.644500     0.004505
AU3478   AU        0.193331    0.682295    0.692587     0.007504
AU3479   AU        0.254631    0.643567    0.681586     0.007504
PT3480   PT        0.253304    0.676844    0.643815     0.004505
AU3481   AU        0.286812    0.638886    0.643201     0.007504
AU3482   AU        0.287659    0.679876    0.681838     0.007504
PT3483   PT        0.325764    0.644649    0.680354     0.004505
AU3484   AU        0.322233    0.675146    0.640225     0.007504
AU3485   AU        0.358502    0.638483    0.642955     0.007504
PT3486   PT        0.357982    0.678378    0.677233     0.004505
AU3487   AU        0.393894    0.641434    0.679318     0.007504
PT3488   PT        0.393134    0.674659    0.640793     0.004505
AU3489   AU        0.430964    0.641054    0.645238     0.007504
AU3490   AU        0.429849    0.676983    0.679079     0.007504
AU3491   AU        0.464574    0.642524    0.680302     0.007504
AU3492   AU        0.464093    0.679006    0.645045     0.007504
PT3493   PT        0.498888    0.644676    0.646939     0.004505
AU3494   AU        0.499022    0.678966    0.683881     0.007504
AU3495   AU        0.535663    0.644162    0.677867     0.007504
PT3496   PT        0.532223    0.677876    0.643169     0.004505
AU3497   AU        0.569284    0.640746    0.642700     0.007504
PT3498   PT        0.570167    0.678771    0.681979     0.004505
AU3499   AU        0.603604    0.641216    0.681908     0.007504
AU3500   AU        0.605105    0.678004    0.644575     0.007504
AU3501   AU        0.638764    0.642995    0.642263     0.007504
PT3502   PT        0.639517    0.679467    0.680860     0.004505
PT3503   PT        0.673950    0.641969    0.681265     0.004505
AU3504   AU        0.673697    0.678438    0.644326     0.007504
PT3505   PT        0.710494    0.647135    0.647244     0.004505
AU3506   AU        0.211907    0.741641    0.673369     0.007504
PT3507   PT        0.255391    0.716531    0.681312     0.004505
PT3508   PT        0.250604    0.752894    0.645450     0.004505
AU3509   AU        0.287800    0.717517    0.642998     0.007504
AU3510   AU        0.291671    0.753610    0.679396     0.007504
AU3511   AU        0.325026    0.715107    0.679476     0.007504
AU3512   AU        0.325445    0.749604    0.646023     0.007504
PT3513   PT        0.359664    0.711830    0.643440     0.004505
PT3514   PT        0.360482    0.748944    0.681959     0.004505
AU3515   AU        0.394150    0.711758    0.679964     0.007504
PT3516   PT        0.393357    0.747226    0.645203     0.004505
PT3517   PT        0.428224    0.714696    0.643558     0.004505
AU3518   AU        0.428788    0.749593    0.679213     0.007504
AU3519   AU        0.464144    0.714532    0.677924     0.007504
PT3520   PT        0.464842    0.749183    0.641771     0.004505
AU3521   AU        0.500303    0.712702    0.643558     0.007504
AU3522   AU        0.500729    0.746684    0.683144     0.007504
PT3523   PT        0.534833    0.713367    0.679482     0.004505
AU3524   AU        0.533342    0.748410    0.642860     0.007504
AU3525   AU        0.569283    0.714525    0.645202     0.007504
AU3526   AU        0.566718    0.750842    0.680307     0.007504
AU3527   AU        0.603868    0.714863    0.679389     0.007504
AU3528   AU        0.602481    0.750797    0.646702     0.007504
AU3529   AU        0.637905    0.716967    0.641902     0.007504
AU3530   AU        0.358884    0.783149    0.641505     0.007504
PT3531   PT        0.392890    0.785088    0.677718     0.004505
PT3532   PT        0.430312    0.782794    0.643689     0.004505
AU3533   AU        0.464668    0.783706    0.681432     0.007504
AU3534   AU        0.498552    0.783021    0.646490     0.007504
PT3535   PT        0.395021    0.113737    0.711969     0.004505
AU3536   AU        0.467040    0.110336    0.717580     0.007504
PT3537   PT        0.256526    0.182444    0.711712     0.004505
AU3538   AU        0.291225    0.147581    0.714862     0.007504
AU3539   AU        0.289296    0.184881    0.747246     0.007504
PT3540   PT        0.323537    0.186182    0.710115     0.004505
AU3541   AU        0.356982    0.147477    0.711507     0.007504
AU3542   AU        0.358688    0.182745    0.744164     0.007504
AU3543   AU        0.395140    0.150385    0.745959     0.007504
PT3544   PT        0.393662    0.183651    0.709416     0.004505
AU3545   AU        0.431262    0.145967    0.713220     0.007504
AU3546   AU        0.428667    0.185183    0.746177     0.007504
PT3547   PT        0.425800    0.111724    0.753990     0.004505
AU3548   AU        0.462944    0.184281    0.711059     0.007504
PT3549   PT        0.499522    0.149281    0.713065     0.004505
PT3550   PT        0.498638    0.184594    0.746972     0.004505
AU3551   AU        0.534959    0.182397    0.713173     0.007504
AU3552   AU        0.570239    0.147588    0.714138     0.007504
PT3553   PT        0.571281    0.181052    0.750254     0.004505
AU3554   AU        0.606554    0.181747    0.716946     0.007504
AU3555   AU        0.180311    0.255468    0.713329     0.007504
AU3556   AU        0.219434    0.219181    0.710023     0.007504
AU3557   AU        0.216197    0.249828    0.748491     0.007504
AU3558   AU        0.255386    0.218346    0.744930     0.007504
AU3559   AU        0.253588    0.254602    0.709721     0.007504
PT3560   PT        0.287827    0.219722    0.710444     0.004505
PT3561   PT        0.287940    0.254964    0.744476     0.004505
PT3562   PT        0.323477    0.218653    0.745036     0.004505
PT3563   PT        0.324450    0.254199    0.709830     0.004505
AU3564   AU        0.358994    0.219454    0.711887     0.007504
PT3565   PT        0.357840    0.254524    0.746057     0.004505
PT3566   PT        0.394292    0.219179    0.747798     0.004505
PT3567   PT        0.395319    0.254128    0.711918     0.004505
PT3568   PT        0.428628    0.217478    0.710215     0.004505
PT3569   PT        0.429667    0.254384    0.747411     0.004505
AU3570   AU        0.464926    0.218958    0.747834     0.007504
PT3571   PT        0.464201    0.254397    0.710940     0.004505
PT3572   PT        0.499893    0.218864    0.711681     0.004505
AU3573   AU        0.499362    0.255000    0.749797     0.007504
AU3574   AU        0.532584    0.218929    0.747893     0.007504
PT3575   PT        0.533965    0.254367    0.712887     0.004505
AU3576   AU        0.570697    0.218205    0.714347     0.007504
AU3577   AU        0.570235    0.253238    0.751428     0.007504
PT3578   PT        0.603711    0.218501    0.752600     0.004505
PT3579   PT        0.604426    0.254634    0.715687     0.004505
AU3580   AU        0.638835    0.217871    0.712769     0.007504
AU3581   AU        0.638860    0.251641    0.750725     0.007504
AU3582   AU        0.674641    0.250971    0.715500     0.007504
AU3583   AU        0.143304    0.289629    0.716495     0.007504
AU3584   AU        0.180298    0.288844    0.749118     0.007504
PT3585   PT        0.183263    0.320989    0.710601     0.004505
PT3586   PT        0.217093    0.285810    0.712629     0.004505
AU3587   AU        0.214054    0.323685    0.746031     0.007504
PT3588   PT        0.249937    0.288167    0.746717     0.004505
PT3589   PT        0.251491    0.321498    0.712283     0.004505
PT3590   PT        0.289036    0.289238    0.710836     0.004505
AU3591   AU        0.287857    0.322755    0.744800     0.007504
PT3592   PT        0.323780    0.289447    0.746403     0.004505
AU3593   AU        0.324592    0.324037    0.710842     0.007504
AU3594   AU        0.358030    0.289278    0.709375     0.007504
AU3595   AU        0.358514    0.323088    0.745324     0.007504
AU3596   AU        0.393897    0.287911    0.746651     0.007504
AU3597   AU        0.393543    0.323922    0.710115     0.007504
AU3598   AU        0.428577    0.287682    0.710036     0.007504
PT3599   PT        0.427170    0.322833    0.745919     0.004505
AU3600   AU        0.464284    0.288197    0.746723     0.007504
PT3601   PT        0.464070    0.323892    0.711157     0.004505
PT3602   PT        0.498780    0.289891    0.710914     0.004505
PT3603   PT        0.498135    0.323261    0.746100     0.004505
AU3604   AU        0.535850    0.289179    0.749888     0.007504
AU3605   AU        0.534588    0.323209    0.712088     0.007504
AU3606   AU        0.570416    0.288891    0.712928     0.007504
AU3607   AU        0.567720    0.326272    0.749502     0.007504
AU3608   AU        0.602136    0.290739    0.752180     0.007504
AU3609   AU        0.604751    0.324295    0.709540     0.007504
PT3610   PT        0.639516    0.288988    0.713323     0.004505
AU3611   AU        0.639492    0.321215    0.749545     0.007504
AU3612   AU        0.678003    0.286567    0.748857     0.007504
PT3613   PT        0.674610    0.323564    0.715666     0.004505
AU3614   AU        0.710395    0.287746    0.712069     0.007504
AU3615   AU        0.110997    0.391902    0.719465     0.007504
PT3616   PT        0.144950    0.357496    0.715706     0.004505
PT3617   PT        0.145794    0.395794    0.753610     0.004505
AU3618   AU        0.181861    0.359351    0.747908     0.007504
AU3619   AU        0.178647    0.394883    0.714667     0.007504
AU3620   AU        0.216231    0.360727    0.713099     0.007504
PT3621   PT        0.216412    0.394063    0.748170     0.004505
PT3622   PT        0.254374    0.358504    0.743516     0.004505
PT3623   PT        0.252168    0.393686    0.709471     0.004505
PT3624   PT        0.288682    0.359321    0.710463     0.004505
PT3625   PT        0.286618    0.394541    0.744779     0.004505
AU3626   AU        0.322685    0.358758    0.745913     0.007504
PT3627   PT        0.322974    0.393717    0.710735     0.004505
PT3628   PT        0.357326    0.359502    0.712975     0.004505
PT3629   PT        0.357719    0.393082    0.744672     0.004505
PT3630   PT        0.392233    0.358371    0.745684     0.004505
PT3631   PT        0.393794    0.394234    0.710723     0.004505
AU3632   AU        0.428045    0.358251    0.709848     0.007504
AU3633   AU        0.429388    0.393818    0.744841     0.007504
PT3634   PT        0.463765    0.358164    0.746918     0.004505
PT3635   PT        0.462471    0.393251    0.709064     0.004505
AU3636   AU        0.498538    0.358274    0.710172     0.007504
PT3637   PT        0.497837    0.394217    0.747538     0.004505
PT3638   PT        0.531238    0.358055    0.744582     0.004505
AU3639   AU        0.533280    0.394363    0.710964     0.007504
PT3640   PT        0.569596    0.357756    0.711090     0.004505
AU3641   AU        0.567389    0.393130    0.747518     0.007504
PT3642   PT        0.604830    0.358909    0.748044     0.004505
PT3643   PT        0.603372    0.393748    0.711862     0.004505
PT3644   PT        0.640914    0.358889    0.714408     0.004505
AU3645   AU        0.641221    0.392007    0.748794     0.007504
PT3646   PT        0.679327    0.358891    0.750654     0.004505
AU3647   AU        0.679485    0.393974    0.712255     0.007504
AU3648   AU        0.714358    0.358099    0.714111     0.007504
AU3649   AU        0.714284    0.394105    0.749898     0.007504
PT3650   PT        0.747498    0.394079    0.715439     0.004505
AU3651   AU        0.104026    0.463927    0.715722     0.007504
AU3652   AU        0.143137    0.428909    0.714863     0.007504
AU3653   AU        0.144155    0.462908    0.749547     0.007504
AU3654   AU        0.180839    0.429914    0.749210     0.007504
PT3655   PT        0.182879    0.464558    0.711650     0.004505
PT3656   PT        0.216381    0.425850    0.712973     0.004505
AU3657   AU        0.216066    0.465093    0.745614     0.007504
PT3658   PT        0.254041    0.429537    0.748932     0.004505
PT3659   PT        0.253527    0.462808    0.711445     0.004505
AU3660   AU        0.287694    0.427074    0.711146     0.007504
AU3661   AU        0.287278    0.466002    0.750495     0.007504
PT3662   PT        0.321178    0.428136    0.745327     0.004505
PT3663   PT        0.323906    0.461469    0.712104     0.004505
AU3664   AU        0.358269    0.427978    0.710952     0.007504
PT3665   PT        0.357924    0.464129    0.747025     0.004505
PT3666   PT        0.393829    0.427972    0.745567     0.004505
PT3667   PT        0.392932    0.461664    0.711506     0.004505
AU3668   AU        0.430422    0.428334    0.712022     0.007504
PT3669   PT        0.427499    0.463327    0.749042     0.004505
AU3670   AU        0.463359    0.427610    0.748611     0.007504
AU3671   AU        0.463953    0.462988    0.712110     0.007504
PT3672   PT        0.497725    0.428934    0.710973     0.004505
PT3673   PT        0.497576    0.462292    0.748092     0.004505
AU3674   AU        0.533354    0.429728    0.747896     0.007504
PT3675   PT        0.532946    0.462784    0.712869     0.004505
PT3676   PT        0.568839    0.428740    0.710662     0.004505
PT3677   PT        0.568029    0.463228    0.745340     0.004505
AU3678   AU        0.603688    0.427417    0.746641     0.007504
PT3679   PT        0.604756    0.461225    0.710887     0.004505
AU3680   AU        0.640243    0.428508    0.714129     0.007504
PT3681   PT        0.641290    0.464468    0.750977     0.004505
AU3682   AU        0.675598    0.431552    0.747818     0.007504
PT3683   PT        0.675290    0.467673    0.715194     0.004505
AU3684   AU        0.712017    0.431163    0.715289     0.007504
PT3685   PT        0.721302    0.446736    0.762159     0.004505
PT3686   PT        0.746006    0.521518    0.743814     0.004505
PT3687   PT        0.144598    0.497753    0.713097     0.004505
PT3688   PT        0.181095    0.497886    0.749397     0.004505
AU3689   AU        0.180547    0.536811    0.713760     0.007504
PT3690   PT        0.216558    0.502374    0.714439     0.004505
PT3691   PT        0.217972    0.536416    0.749205     0.004505
AU3692   AU        0.251126    0.498952    0.748093     0.007504
AU3693   AU        0.253552    0.535279    0.714115     0.007504
PT3694   PT        0.287058    0.498383    0.713279     0.004505
PT3695   PT        0.287843    0.534273    0.747183     0.004505
AU3696   AU        0.324635    0.498318    0.745977     0.007504
PT3697   PT        0.322194    0.531700    0.712766     0.004505
PT3698   PT        0.358791    0.500215    0.711226     0.004505
PT3699   PT        0.358139    0.532564    0.749756     0.004505
PT3700   PT        0.392245    0.497819    0.746628     0.004505
AU3701   AU        0.392003    0.534574    0.713141     0.007504
AU3702   AU        0.427557    0.497245    0.712378     0.007504
AU3703   AU        0.428196    0.532392    0.749958     0.007504
PT3704   PT        0.463296    0.496787    0.746229     0.004505
AU3705   AU        0.464776    0.535756    0.715500     0.007504
AU3706   AU        0.499840    0.498449    0.712620     0.007504
PT3707   PT        0.498969    0.533964    0.750581     0.004505
AU3708   AU        0.534203    0.497432    0.747097     0.007504
AU3709   AU        0.532060    0.532726    0.714466     0.007504
AU3710   AU        0.568410    0.497502    0.711809     0.007504
AU3711   AU        0.566199    0.533116    0.749358     0.007504
AU3712   AU        0.606144    0.497408    0.748567     0.007504
PT3713   PT        0.603223    0.537649    0.716329     0.004505
PT3714   PT        0.637318    0.497802    0.712309     0.004505
AU3715   AU        0.639214    0.536161    0.751868     0.007504
AU3716   AU        0.709758    0.498235    0.765237     0.007504
AU3717   AU        0.673755    0.531480    0.715884     0.007504
AU3718   AU        0.712470    0.503303    0.713861     0.007504
AU3719   AU        0.143344    0.571599    0.718095     0.007504
AU3720   AU        0.181203    0.570979    0.750173     0.007504
AU3721   AU        0.181652    0.604383    0.715703     0.007504
PT3722   PT        0.215783    0.572492    0.712106     0.004505
PT3723   PT        0.218086    0.575728    0.784774     0.004505
PT3724   PT        0.252682    0.571108    0.747670     0.004505
AU3725   AU        0.249613    0.607589    0.716916     0.007504
PT3726   PT        0.287939    0.569387    0.714561     0.004505
AU3727   AU        0.284494    0.606712    0.748931     0.007504
PT3728   PT        0.322223    0.570356    0.751405     0.004505
PT3729   PT        0.323065    0.603482    0.714358     0.004505
AU3730   AU        0.358547    0.568816    0.714210     0.007504
AU3731   AU        0.359449    0.607855    0.750796     0.007504
AU3732   AU        0.391583    0.570436    0.749940     0.007504
PT3733   PT        0.393047    0.602618    0.712926     0.004505
PT3734   PT        0.428432    0.572830    0.716101     0.004505
AU3735   AU        0.425199    0.607131    0.753301     0.007504
AU3736   AU        0.463980    0.572339    0.750261     0.007504
PT3737   PT        0.461655    0.607699    0.715654     0.004505
AU3738   AU        0.498833    0.572870    0.717783     0.007504
AU3739   AU        0.501514    0.607789    0.751369     0.007504
AU3740   AU        0.533413    0.571289    0.749540     0.007504
PT3741   PT        0.535482    0.608913    0.714907     0.004505
AU3742   AU        0.567004    0.569616    0.716572     0.007504
AU3743   AU        0.568398    0.608416    0.752432     0.007504
AU3744   AU        0.603172    0.570777    0.750387     0.007504
AU3745   AU        0.605700    0.605803    0.712087     0.007504
PT3746   PT        0.639455    0.570317    0.716020     0.004505
PT3747   PT        0.638614    0.609756    0.748705     0.004505
PT3748   PT        0.672788    0.570331    0.755287     0.004505
AU3749   AU        0.672316    0.605259    0.716248     0.007504
PT3750   PT        0.708556    0.569940    0.716108     0.004505
AU3751   AU        0.216729    0.642217    0.712287     0.007504
AU3752   AU        0.251009    0.643415    0.751262     0.007504
PT3753   PT        0.254846    0.678279    0.720026     0.004505
PT3754   PT        0.289630    0.642242    0.716208     0.004505
AU3755   AU        0.287669    0.678713    0.754850     0.007504
PT3756   PT        0.324601    0.643883    0.753317     0.004505
AU3757   AU        0.323954    0.679371    0.718198     0.007504
AU3758   AU        0.357467    0.640505    0.715856     0.007504
AU3759   AU        0.359498    0.677666    0.752302     0.007504
PT3760   PT        0.392722    0.642552    0.754170     0.004505
AU3761   AU        0.392547    0.677710    0.715235     0.007504
AU3762   AU        0.426068    0.641870    0.715474     0.007504
AU3763   AU        0.427308    0.677182    0.752651     0.007504
AU3764   AU        0.461649    0.642038    0.748395     0.007504
PT3765   PT        0.461055    0.679096    0.715839     0.004505
AU3766   AU        0.496713    0.640881    0.715549     0.007504
AU3767   AU        0.498532    0.677037    0.750041     0.007504
AU3768   AU        0.534112    0.644521    0.750063     0.007504
AU3769   AU        0.534822    0.677395    0.715261     0.007504
AU3770   AU        0.571007    0.643264    0.717910     0.007504
AU3771   AU        0.570065    0.678405    0.754595     0.007504
PT3772   PT        0.602482    0.643664    0.755232     0.004505
AU3773   AU        0.605105    0.678561    0.718018     0.007504
AU3774   AU        0.638614    0.642607    0.715883     0.007504
PT3775   PT        0.290839    0.718421    0.714264     0.004505
AU3776   AU        0.359565    0.714921    0.714934     0.007504
AU3777   AU        0.393705    0.711035    0.750227     0.007504
AU3778   AU        0.394019    0.751811    0.717995     0.007504
AU3779   AU        0.428033    0.717339    0.714857     0.007504
AU3780   AU        0.464770    0.713756    0.753091     0.007504
AU3781   AU        0.465721    0.751489    0.715666     0.007504
AU3782   AU        0.496057    0.712866    0.715163     0.007504
AU3783   AU        0.570882    0.714007    0.716063     0.007504
PT3784   PT        0.395090    0.183580    0.781950     0.004505
PT3785   PT        0.424797    0.143803    0.791023     0.004505
PT3786   PT        0.252974    0.290052    0.815290     0.004505
PT3787   PT        0.324666    0.253480    0.781190     0.004505
AU3788   AU        0.357576    0.217985    0.782414     0.007504
AU3789   AU        0.359671    0.251181    0.819533     0.007504
PT3790   PT        0.394832    0.250952    0.783843     0.004505
AU3791   AU        0.430042    0.217482    0.783147     0.007504
PT3792   PT        0.428079    0.252344    0.820963     0.004505
AU3793   AU        0.465029    0.252474    0.784426     0.007504
PT3794   PT        0.499482    0.217700    0.783876     0.004505
AU3795   AU        0.499452    0.250281    0.821032     0.007504
PT3796   PT        0.536506    0.250536    0.785696     0.004505
PT3797   PT        0.603649    0.253863    0.787953     0.004505
PT3798   PT        0.254314    0.324585    0.779840     0.004505
AU3799   AU        0.288654    0.288626    0.780070     0.007504
PT3800   PT        0.288383    0.323803    0.818798     0.004505
AU3801   AU        0.323052    0.288180    0.822103     0.007504
PT3802   PT        0.324301    0.322757    0.779741     0.004505
PT3803   PT        0.360504    0.288037    0.782413     0.004505
AU3804   AU        0.356629    0.322287    0.815294     0.007504
PT3805   PT        0.393863    0.288060    0.821753     0.004505
AU3806   AU        0.393774    0.323548    0.780947     0.007504
AU3807   AU        0.430083    0.288327    0.784128     0.007504
PT3808   PT        0.429793    0.324408    0.816192     0.004505
PT3809   PT        0.463049    0.286219    0.821810     0.004505
PT3810   PT        0.463765    0.323815    0.781185     0.004505
PT3811   PT        0.496861    0.289600    0.784606     0.004505
AU3812   AU        0.495182    0.324999    0.818658     0.007504
AU3813   AU        0.531863    0.291308    0.821989     0.007504
PT3814   PT        0.532851    0.325136    0.781965     0.004505
AU3815   AU        0.567841    0.289436    0.787982     0.007504
AU3816   AU        0.567927    0.324390    0.821745     0.007504
AU3817   AU        0.606153    0.323833    0.788038     0.007504
AU3818   AU        0.182187    0.392766    0.784368     0.007504
AU3819   AU        0.219593    0.358443    0.780566     0.007504
PT3820   PT        0.253294    0.358010    0.814902     0.004505
AU3821   AU        0.255668    0.392510    0.780675     0.007504
AU3822   AU        0.289074    0.357052    0.780175     0.007504
AU3823   AU        0.289870    0.390988    0.815359     0.007504
PT3824   PT        0.325105    0.358889    0.815598     0.004505
PT3825   PT        0.323169    0.392721    0.780148     0.004505
PT3826   PT        0.357831    0.359342    0.780555     0.004505
PT3827   PT        0.357849    0.395425    0.818510     0.004505
PT3828   PT        0.392830    0.357928    0.816486     0.004505
AU3829   AU        0.392179    0.394943    0.782395     0.007504
PT3830   PT        0.428525    0.360331    0.781852     0.004505
AU3831   AU        0.425812    0.395957    0.823261     0.007504
PT3832   PT        0.463790    0.361408    0.821092     0.004505
AU3833   AU        0.462215    0.395536    0.784706     0.007504
AU3834   AU        0.497652    0.358050    0.783896     0.007504
AU3835   AU        0.498867    0.395217    0.823361     0.007504
AU3836   AU        0.534285    0.357229    0.821510     0.007504
PT3837   PT        0.530460    0.392105    0.785191     0.004505
AU3838   AU        0.570066    0.360031    0.784669     0.007504
AU3839   AU        0.568056    0.393154    0.820240     0.007504
AU3840   AU        0.604867    0.359695    0.822761     0.007504
PT3841   PT        0.605132    0.391808    0.787267     0.004505
PT3842   PT        0.641367    0.355415    0.784915     0.004505
PT3843   PT        0.713586    0.358614    0.789791     0.004505
AU3844   AU        0.181084    0.462717    0.784399     0.007504
PT3845   PT        0.220403    0.429569    0.784282     0.004505
PT3846   PT        0.253219    0.422752    0.824269     0.004505
AU3847   AU        0.250447    0.464217    0.786568     0.007504
PT3848   PT        0.285973    0.429416    0.784279     0.004505
PT3849   PT        0.283310    0.463956    0.825149     0.004505
AU3850   AU        0.320127    0.430119    0.823772     0.007504
AU3851   AU        0.318311    0.465972    0.788410     0.007504
AU3852   AU        0.355214    0.429915    0.783366     0.007504
AU3853   AU        0.356555    0.465252    0.820786     0.007504
PT3854   PT        0.391705    0.432009    0.821067     0.004505
PT3855   PT        0.390878    0.462646    0.785352     0.004505
PT3856   PT        0.427728    0.429298    0.786486     0.004505
AU3857   AU        0.428143    0.465473    0.822726     0.007504
PT3858   PT        0.462522    0.430186    0.824009     0.004505
AU3859   AU        0.461587    0.464158    0.784917     0.007504
PT3860   PT        0.500822    0.430011    0.786068     0.004505
AU3861   AU        0.495186    0.502425    0.857670     0.007504
PT3862   PT        0.534574    0.428424    0.823665     0.004505
AU3863   AU        0.535810    0.464516    0.785705     0.007504
AU3864   AU        0.570781    0.427124    0.786826     0.007504
PT3865   PT        0.570781    0.463948    0.820906     0.004505
AU3866   AU        0.603758    0.424883    0.824565     0.007504
AU3867   AU        0.606363    0.464136    0.785301     0.007504
PT3868   PT        0.638701    0.427510    0.783071     0.004505
PT3869   PT        0.679742    0.461582    0.787258     0.004505
AU3870   AU        0.216566    0.498738    0.783757     0.007504
AU3871   AU        0.247677    0.498518    0.822375     0.007504
PT3872   PT        0.251176    0.539772    0.785679     0.004505
PT3873   PT        0.283771    0.502224    0.786977     0.004505
AU3874   AU        0.284209    0.536914    0.819834     0.007504
AU3875   AU        0.321971    0.501695    0.820435     0.007504
AU3876   AU        0.319706    0.534010    0.783979     0.007504
PT3877   PT        0.356867    0.498501    0.782595     0.004505
AU3878   AU        0.355660    0.535371    0.819915     0.007504
PT3879   PT        0.395031    0.498535    0.817355     0.004505
PT3880   PT        0.391565    0.535491    0.784789     0.004505
AU3881   AU        0.428185    0.496846    0.782778     0.007504
AU3882   AU        0.429124    0.535315    0.821117     0.007504
PT3883   PT        0.462899    0.500867    0.820509     0.004505
AU3884   AU        0.463095    0.533308    0.785198     0.007504
PT3885   PT        0.497871    0.498750    0.783626     0.004505
AU3886   AU        0.497290    0.535063    0.819603     0.007504
AU3887   AU        0.533903    0.499309    0.823135     0.007504
AU3888   AU        0.534134    0.530451    0.787692     0.007504
PT3889   PT        0.572210    0.497708    0.785681     0.004505
PT3890   PT        0.570581    0.534876    0.820037     0.004505
PT3891   PT        0.606234    0.499166    0.819310     0.004505
AU3892   AU        0.604570    0.534699    0.783529     0.007504
AU3893   AU        0.643409    0.499207    0.784601     0.007504
PT3894   PT        0.254442    0.609034    0.789045     0.004505
PT3895   PT        0.286216    0.573343    0.781916     0.004505
AU3896   AU        0.319799    0.568373    0.818747     0.007504
AU3897   AU        0.321291    0.608062    0.782725     0.007504
AU3898   AU        0.358297    0.572218    0.784809     0.007504
AU3899   AU        0.358542    0.606910    0.825703     0.007504
PT3900   PT        0.391326    0.569326    0.821249     0.004505
AU3901   AU        0.393976    0.608403    0.789238     0.007504
AU3902   AU        0.428139    0.571266    0.787512     0.007504
AU3903   AU        0.424049    0.605577    0.824563     0.007504
PT3904   PT        0.462635    0.572805    0.823665     0.004505
AU3905   AU        0.463092    0.605691    0.784056     0.007504
AU3906   AU        0.499711    0.573757    0.788317     0.007504
AU3907   AU        0.465782    0.609929    0.854343     0.007504
AU3908   AU        0.534805    0.568146    0.821685     0.007504
PT3909   PT        0.535745    0.607548    0.787797     0.004505
AU3910   AU        0.566987    0.570212    0.783122     0.007504
AU3911   AU        0.604542    0.606658    0.788586     0.007504
AU3912   AU        0.358028    0.643754    0.788583     0.007504
PT3913   PT        0.393250    0.678194    0.790655     0.004505
AU3914   AU        0.430317    0.640780    0.787649     0.007504
AU3915   AU        0.464750    0.677297    0.783458     0.007504
PT3916   PT        0.497056    0.643274    0.786457     0.004505
AU3917   AU        0.389859    0.394799    0.859146     0.007504
AU3918   AU        0.425270    0.358038    0.854475     0.007504
AU3919   AU        0.461733    0.394980    0.860019     0.007504
AU3920   AU        0.358377    0.432046    0.856894     0.007504
AU3921   AU        0.394143    0.468947    0.857755     0.007504
AU3922   AU        0.425075    0.431736    0.858814     0.007504
AU3923   AU        0.459500    0.469257    0.861653     0.007504
AU3924   AU        0.498378    0.431755    0.862241     0.007504
AU3925   AU        0.395968    0.505241    0.893523     0.007504
