data_00001
_audit_creation_method   'DISCUS'

_data_chemical_name_common 'Au.cell: lattice parameter from Pearson85'

_cell_length_a             69.3413
_cell_length_b             69.3413
_cell_length_c             69.3413
_cell_angle_alpha     90.0000
_cell_angle_beta      90.0000
_cell_angle_gamma     90.0000

_symmetry_space_group_name_H-M   'P1              '

loop_
_atom_site_label
_atom_site_symbol
_atom_site_fract_x
_atom_site_fract_y
_atom_site_fract_z
_atom_site_u_iso_or_equiv
AU2398   AU        0.412353    0.324118    0.147647     0.007504
AU2402   AU        0.471176    0.324118    0.147647     0.007504
AU2406   AU        0.530000    0.324118    0.147647     0.007504
PD2458   PD        0.353529    0.382941    0.147647     0.005394
PD2459   PD        0.382941    0.353529    0.147647     0.005394
PD2462   PD        0.412353    0.382941    0.147647     0.005394
PD2463   PD        0.441765    0.353529    0.147647     0.005394
AU2466   AU        0.471176    0.382941    0.147647     0.007504
AU2467   AU        0.500588    0.353529    0.147647     0.007504
AU2470   AU        0.530000    0.382941    0.147647     0.007504
PD2471   PD        0.559412    0.353529    0.147647     0.005394
AU2474   AU        0.588824    0.382941    0.147647     0.007504
AU2519   AU        0.324118    0.412353    0.147647     0.007504
PD2522   PD        0.353529    0.441765    0.147647     0.005394
PD2523   PD        0.382941    0.412353    0.147647     0.005394
PD2526   PD        0.412353    0.441765    0.147647     0.005394
PD2527   PD        0.441765    0.412353    0.147647     0.005394
AU2528   AU        0.441765    0.441765    0.118235     0.007504
PD2529   PD        0.471176    0.412353    0.118235     0.005394
PD2530   PD        0.471176    0.441765    0.147647     0.005394
AU2531   AU        0.500588    0.412353    0.147647     0.007504
PD2532   PD        0.500588    0.441765    0.118235     0.005394
PD2534   PD        0.530000    0.441765    0.147647     0.005394
PD2535   PD        0.559412    0.412353    0.147647     0.005394
AU2538   AU        0.588824    0.441765    0.147647     0.007504
PD2539   PD        0.618235    0.412353    0.147647     0.005394
PD2583   PD        0.324118    0.471176    0.147647     0.005394
PD2586   PD        0.353529    0.500588    0.147647     0.005394
PD2587   PD        0.382941    0.471176    0.147647     0.005394
PD2589   PD        0.412353    0.471176    0.118235     0.005394
AU2590   AU        0.412353    0.500588    0.147647     0.007504
PD2591   PD        0.441765    0.471176    0.147647     0.005394
PD2592   PD        0.441765    0.500588    0.118235     0.005394
AU2593   AU        0.471176    0.471176    0.118235     0.007504
PD2594   PD        0.471176    0.500588    0.147647     0.005394
PD2595   PD        0.500588    0.471176    0.147647     0.005394
AU2596   AU        0.500588    0.500588    0.118235     0.007504
AU2597   AU        0.530000    0.471176    0.118235     0.007504
AU2598   AU        0.530000    0.500588    0.147647     0.007504
PD2599   PD        0.559412    0.471176    0.147647     0.005394
PD2602   PD        0.588824    0.500588    0.147647     0.005394
PD2603   PD        0.618235    0.471176    0.147647     0.005394
PD2647   PD        0.324118    0.530000    0.147647     0.005394
PD2650   PD        0.353529    0.559412    0.147647     0.005394
AU2651   AU        0.382941    0.530000    0.147647     0.007504
AU2654   AU        0.412353    0.559412    0.147647     0.007504
PD2655   PD        0.441765    0.530000    0.147647     0.005394
PD2657   PD        0.471176    0.530000    0.118235     0.005394
PD2658   PD        0.471176    0.559412    0.147647     0.005394
AU2659   AU        0.500588    0.530000    0.147647     0.007504
PD2662   PD        0.530000    0.559412    0.147647     0.005394
AU2663   AU        0.559412    0.530000    0.147647     0.007504
PD2666   PD        0.588824    0.559412    0.147647     0.005394
AU2667   AU        0.618235    0.530000    0.147647     0.007504
PD2715   PD        0.382941    0.588824    0.147647     0.005394
PD2718   PD        0.412353    0.618235    0.147647     0.005394
PD2719   PD        0.441765    0.588824    0.147647     0.005394
PD2722   PD        0.471176    0.618235    0.147647     0.005394
PD2723   PD        0.500588    0.588824    0.147647     0.005394
PD2726   PD        0.530000    0.618235    0.147647     0.005394
PD2727   PD        0.559412    0.588824    0.147647     0.005394
AU3354   AU        0.353529    0.265294    0.206471     0.007504
AU3358   AU        0.412353    0.265294    0.206471     0.007504
AU3359   AU        0.441765    0.235882    0.206471     0.007504
PD3360   PD        0.441765    0.265294    0.177059     0.005394
PD3362   PD        0.471176    0.265294    0.206471     0.005394
AU3363   AU        0.500588    0.235882    0.206471     0.007504
PD3364   PD        0.500588    0.265294    0.177059     0.005394
PD3366   PD        0.530000    0.265294    0.206471     0.005394
AU3370   AU        0.588824    0.265294    0.206471     0.007504
PD3414   PD        0.294706    0.324118    0.206471     0.005394
PD3415   PD        0.324118    0.294706    0.206471     0.005394
PD3416   PD        0.324118    0.324118    0.177059     0.005394
PD3418   PD        0.353529    0.324118    0.206471     0.005394
AU3419   AU        0.382941    0.294706    0.206471     0.007504
AU3420   AU        0.382941    0.324118    0.177059     0.007504
AU3421   AU        0.412353    0.294706    0.177059     0.007504
PD3422   PD        0.412353    0.324118    0.206471     0.005394
AU3423   AU        0.441765    0.294706    0.206471     0.007504
AU3424   AU        0.441765    0.324118    0.177059     0.007504
PD3425   PD        0.471176    0.294706    0.177059     0.005394
PD3426   PD        0.471176    0.324118    0.206471     0.005394
PD3427   PD        0.500588    0.294706    0.206471     0.005394
AU3428   AU        0.500588    0.324118    0.177059     0.007504
AU3429   AU        0.530000    0.294706    0.177059     0.007504
PD3430   PD        0.530000    0.324118    0.206471     0.005394
PD3431   PD        0.559412    0.294706    0.206471     0.005394
PD3432   PD        0.559412    0.324118    0.177059     0.005394
AU3434   AU        0.588824    0.324118    0.206471     0.007504
AU3435   AU        0.618235    0.294706    0.206471     0.007504
PD3436   PD        0.618235    0.324118    0.177059     0.005394
PD3438   PD        0.647647    0.324118    0.206471     0.005394
PD3475   PD        0.265294    0.353529    0.206471     0.005394
AU3478   AU        0.294706    0.382941    0.206471     0.007504
PD3479   PD        0.324118    0.353529    0.206471     0.005394
PD3480   PD        0.324118    0.382941    0.177059     0.005394
PD3481   PD        0.353529    0.353529    0.177059     0.005394
AU3482   AU        0.353529    0.382941    0.206471     0.007504
PD3483   PD        0.382941    0.353529    0.206471     0.005394
AU3484   AU        0.382941    0.382941    0.177059     0.007504
PD3485   PD        0.412353    0.353529    0.177059     0.005394
AU3486   AU        0.412353    0.382941    0.206471     0.007504
PD3487   PD        0.441765    0.353529    0.206471     0.005394
PD3488   PD        0.441765    0.382941    0.177059     0.005394
PD3489   PD        0.471176    0.353529    0.177059     0.005394
PD3490   PD        0.471176    0.382941    0.206471     0.005394
PD3491   PD        0.500588    0.353529    0.206471     0.005394
AU3492   AU        0.500588    0.382941    0.177059     0.007504
AU3493   AU        0.530000    0.353529    0.177059     0.007504
PD3494   PD        0.530000    0.382941    0.206471     0.005394
PD3495   PD        0.559412    0.353529    0.206471     0.005394
PD3496   PD        0.559412    0.382941    0.177059     0.005394
AU3497   AU        0.588824    0.353529    0.177059     0.007504
AU3498   AU        0.588824    0.382941    0.206471     0.007504
PD3499   PD        0.618235    0.353529    0.206471     0.005394
AU3500   AU        0.618235    0.382941    0.177059     0.007504
AU3502   AU        0.647647    0.382941    0.206471     0.007504
PD3503   PD        0.677059    0.353529    0.206471     0.005394
PD3538   PD        0.235882    0.441765    0.206471     0.005394
PD3539   PD        0.265294    0.412353    0.206471     0.005394
PD3540   PD        0.265294    0.441765    0.177059     0.005394
AU3541   AU        0.294706    0.412353    0.177059     0.007504
AU3542   AU        0.294706    0.441765    0.206471     0.007504
AU3543   AU        0.324118    0.412353    0.206471     0.007504
PD3544   PD        0.324118    0.441765    0.177059     0.005394
AU3545   AU        0.353529    0.412353    0.177059     0.007504
PD3546   PD        0.353529    0.441765    0.206471     0.005394
AU3547   AU        0.382941    0.412353    0.206471     0.007504
PD3548   PD        0.382941    0.441765    0.177059     0.005394
PD3549   PD        0.412353    0.412353    0.177059     0.005394
AU3550   AU        0.412353    0.441765    0.206471     0.007504
PD3551   PD        0.441765    0.412353    0.206471     0.005394
AU3552   AU        0.441765    0.441765    0.177059     0.007504
PD3553   PD        0.471176    0.412353    0.177059     0.005394
AU3554   AU        0.471176    0.441765    0.206471     0.007504
AU3555   AU        0.500588    0.412353    0.206471     0.007504
PD3556   PD        0.500588    0.441765    0.177059     0.005394
AU3557   AU        0.530000    0.412353    0.177059     0.007504
AU3558   AU        0.530000    0.441765    0.206471     0.007504
AU3559   AU        0.559412    0.412353    0.206471     0.007504
PD3560   PD        0.559412    0.441765    0.177059     0.005394
AU3561   AU        0.588824    0.412353    0.177059     0.007504
AU3562   AU        0.588824    0.441765    0.206471     0.007504
PD3563   PD        0.618235    0.412353    0.206471     0.005394
AU3564   AU        0.618235    0.441765    0.177059     0.007504
PD3565   PD        0.647647    0.412353    0.177059     0.005394
AU3566   AU        0.647647    0.441765    0.206471     0.007504
PD3567   PD        0.677059    0.412353    0.206471     0.005394
AU3568   AU        0.677059    0.441765    0.177059     0.007504
PD3570   PD        0.706471    0.441765    0.206471     0.005394
AU3602   AU        0.235882    0.500588    0.206471     0.007504
PD3603   PD        0.265294    0.471176    0.206471     0.005394
PD3604   PD        0.265294    0.500588    0.177059     0.005394
AU3605   AU        0.294706    0.471176    0.177059     0.007504
AU3606   AU        0.294706    0.500588    0.206471     0.007504
AU3607   AU        0.324118    0.471176    0.206471     0.007504
AU3608   AU        0.324118    0.500588    0.177059     0.007504
AU3609   AU        0.353529    0.471176    0.177059     0.007504
AU3610   AU        0.353529    0.500588    0.206471     0.007504
PD3611   PD        0.382941    0.471176    0.206471     0.005394
AU3612   AU        0.382941    0.500588    0.177059     0.007504
PD3613   PD        0.412353    0.471176    0.177059     0.005394
AU3614   AU        0.412353    0.500588    0.206471     0.007504
PD3615   PD        0.441765    0.471176    0.206471     0.005394
AU3616   AU        0.441765    0.500588    0.177059     0.007504
AU3617   AU        0.471176    0.471176    0.177059     0.007504
PD3618   PD        0.471176    0.500588    0.206471     0.005394
AU3619   AU        0.500588    0.471176    0.206471     0.007504
PD3620   PD        0.500588    0.500588    0.177059     0.005394
AU3621   AU        0.530000    0.471176    0.177059     0.007504
AU3622   AU        0.530000    0.500588    0.206471     0.007504
AU3623   AU        0.559412    0.471176    0.206471     0.007504
PD3624   PD        0.559412    0.500588    0.177059     0.005394
PD3625   PD        0.588824    0.471176    0.177059     0.005394
PD3626   PD        0.588824    0.500588    0.206471     0.005394
PD3627   PD        0.618235    0.471176    0.206471     0.005394
PD3628   PD        0.618235    0.500588    0.177059     0.005394
PD3629   PD        0.647647    0.471176    0.177059     0.005394
AU3630   AU        0.647647    0.500588    0.206471     0.007504
AU3631   AU        0.677059    0.471176    0.206471     0.007504
AU3632   AU        0.677059    0.500588    0.177059     0.007504
PD3634   PD        0.706471    0.500588    0.206471     0.005394
PD3667   PD        0.265294    0.530000    0.206471     0.005394
AU3669   AU        0.294706    0.530000    0.177059     0.007504
PD3670   PD        0.294706    0.559412    0.206471     0.005394
PD3671   PD        0.324118    0.530000    0.206471     0.005394
PD3672   PD        0.324118    0.559412    0.177059     0.005394
PD3673   PD        0.353529    0.530000    0.177059     0.005394
PD3674   PD        0.353529    0.559412    0.206471     0.005394
AU3675   AU        0.382941    0.530000    0.206471     0.007504
PD3676   PD        0.382941    0.559412    0.177059     0.005394
PD3677   PD        0.412353    0.530000    0.177059     0.005394
AU3678   AU        0.412353    0.559412    0.206471     0.007504
AU3679   AU        0.441765    0.530000    0.206471     0.007504
PD3680   PD        0.441765    0.559412    0.177059     0.005394
AU3681   AU        0.471176    0.530000    0.177059     0.007504
PD3682   PD        0.471176    0.559412    0.206471     0.005394
PD3683   PD        0.500588    0.530000    0.206471     0.005394
PD3684   PD        0.500588    0.559412    0.177059     0.005394
PD3685   PD        0.530000    0.530000    0.177059     0.005394
AU3686   AU        0.530000    0.559412    0.206471     0.007504
PD3687   PD        0.559412    0.530000    0.206471     0.005394
AU3688   AU        0.559412    0.559412    0.177059     0.007504
AU3689   AU        0.588824    0.530000    0.177059     0.007504
PD3690   PD        0.588824    0.559412    0.206471     0.005394
AU3691   AU        0.618235    0.530000    0.206471     0.007504
AU3692   AU        0.618235    0.559412    0.177059     0.007504
PD3693   PD        0.647647    0.530000    0.177059     0.005394
PD3694   PD        0.647647    0.559412    0.206471     0.005394
PD3695   PD        0.677059    0.530000    0.206471     0.005394
PD3731   PD        0.265294    0.588824    0.206471     0.005394
AU3734   AU        0.294706    0.618235    0.206471     0.007504
PD3735   PD        0.324118    0.588824    0.206471     0.005394
AU3736   AU        0.324118    0.618235    0.177059     0.007504
PD3737   PD        0.353529    0.588824    0.177059     0.005394
PD3738   PD        0.353529    0.618235    0.206471     0.005394
AU3739   AU        0.382941    0.588824    0.206471     0.007504
PD3740   PD        0.382941    0.618235    0.177059     0.005394
PD3741   PD        0.412353    0.588824    0.177059     0.005394
AU3742   AU        0.412353    0.618235    0.206471     0.007504
PD3743   PD        0.441765    0.588824    0.206471     0.005394
AU3744   AU        0.441765    0.618235    0.177059     0.007504
PD3745   PD        0.471176    0.588824    0.177059     0.005394
PD3746   PD        0.471176    0.618235    0.206471     0.005394
AU3747   AU        0.500588    0.588824    0.206471     0.007504
PD3748   PD        0.500588    0.618235    0.177059     0.005394
PD3749   PD        0.530000    0.588824    0.177059     0.005394
AU3750   AU        0.530000    0.618235    0.206471     0.007504
PD3751   PD        0.559412    0.588824    0.206471     0.005394
AU3752   AU        0.559412    0.618235    0.177059     0.007504
PD3753   PD        0.588824    0.588824    0.177059     0.005394
AU3754   AU        0.588824    0.618235    0.206471     0.007504
PD3755   PD        0.618235    0.588824    0.206471     0.005394
PD3756   PD        0.618235    0.618235    0.177059     0.005394
AU3758   AU        0.647647    0.618235    0.206471     0.007504
PD3759   PD        0.677059    0.588824    0.206471     0.005394
PD3799   PD        0.324118    0.647647    0.206471     0.005394
PD3802   PD        0.353529    0.677059    0.206471     0.005394
PD3803   PD        0.382941    0.647647    0.206471     0.005394
AU3805   AU        0.412353    0.647647    0.177059     0.007504
PD3806   PD        0.412353    0.677059    0.206471     0.005394
PD3807   PD        0.441765    0.647647    0.206471     0.005394
PD3808   PD        0.441765    0.677059    0.177059     0.005394
PD3809   PD        0.471176    0.647647    0.177059     0.005394
PD3810   PD        0.471176    0.677059    0.206471     0.005394
AU3811   AU        0.500588    0.647647    0.206471     0.007504
AU3812   AU        0.500588    0.677059    0.177059     0.007504
AU3813   AU        0.530000    0.647647    0.177059     0.007504
AU3814   AU        0.530000    0.677059    0.206471     0.007504
AU3815   AU        0.559412    0.647647    0.206471     0.007504
PD3818   PD        0.588824    0.677059    0.206471     0.005394
AU3819   AU        0.618235    0.647647    0.206471     0.007504
PD3871   PD        0.441765    0.706471    0.206471     0.005394
AU3875   AU        0.500588    0.706471    0.206471     0.007504
PD4314   PD        0.353529    0.206471    0.265294     0.005394
AU4318   AU        0.412353    0.206471    0.265294     0.007504
PD4319   PD        0.441765    0.177059    0.265294     0.005394
AU4320   AU        0.441765    0.206471    0.235882     0.007504
PD4322   PD        0.471176    0.206471    0.265294     0.005394
AU4323   AU        0.500588    0.177059    0.265294     0.007504
PD4324   PD        0.500588    0.206471    0.235882     0.005394
PD4326   PD        0.530000    0.206471    0.265294     0.005394
AU4330   AU        0.588824    0.206471    0.265294     0.007504
PD4374   PD        0.294706    0.265294    0.265294     0.005394
AU4375   AU        0.324118    0.235882    0.265294     0.007504
PD4376   PD        0.324118    0.265294    0.235882     0.005394
PD4377   PD        0.353529    0.235882    0.235882     0.005394
PD4378   PD        0.353529    0.265294    0.265294     0.005394
PD4379   PD        0.382941    0.235882    0.265294     0.005394
AU4380   AU        0.382941    0.265294    0.235882     0.007504
AU4381   AU        0.412353    0.235882    0.235882     0.007504
PD4382   PD        0.412353    0.265294    0.265294     0.005394
PD4383   PD        0.441765    0.235882    0.265294     0.005394
PD4384   PD        0.441765    0.265294    0.235882     0.005394
PD4385   PD        0.471176    0.235882    0.235882     0.005394
PD4386   PD        0.471176    0.265294    0.265294     0.005394
PD4387   PD        0.500588    0.235882    0.265294     0.005394
AU4388   AU        0.500588    0.265294    0.235882     0.007504
AU4389   AU        0.530000    0.235882    0.235882     0.007504
PD4390   PD        0.530000    0.265294    0.265294     0.005394
AU4391   AU        0.559412    0.235882    0.265294     0.007504
PD4392   PD        0.559412    0.265294    0.235882     0.005394
AU4393   AU        0.588824    0.235882    0.235882     0.007504
PD4394   PD        0.588824    0.265294    0.265294     0.005394
AU4395   AU        0.618235    0.235882    0.265294     0.007504
AU4396   AU        0.618235    0.265294    0.235882     0.007504
AU4398   AU        0.647647    0.265294    0.265294     0.007504
PD4434   PD        0.235882    0.324118    0.265294     0.005394
AU4435   AU        0.265294    0.294706    0.265294     0.007504
PD4436   PD        0.265294    0.324118    0.235882     0.005394
AU4437   AU        0.294706    0.294706    0.235882     0.007504
AU4438   AU        0.294706    0.324118    0.265294     0.007504
PD4439   PD        0.324118    0.294706    0.265294     0.005394
AU4440   AU        0.324118    0.324118    0.235882     0.007504
PD4441   PD        0.353529    0.294706    0.235882     0.005394
AU4442   AU        0.353529    0.324118    0.265294     0.007504
AU4443   AU        0.382941    0.294706    0.265294     0.007504
PD4444   PD        0.382941    0.324118    0.235882     0.005394
AU4445   AU        0.412353    0.294706    0.235882     0.007504
AU4446   AU        0.412353    0.324118    0.265294     0.007504
PD4447   PD        0.441765    0.294706    0.265294     0.005394
PD4448   PD        0.441765    0.324118    0.235882     0.005394
AU4449   AU        0.471176    0.294706    0.235882     0.007504
AU4450   AU        0.471176    0.324118    0.265294     0.007504
PD4451   PD        0.500588    0.294706    0.265294     0.005394
PD4452   PD        0.500588    0.324118    0.235882     0.005394
AU4453   AU        0.530000    0.294706    0.235882     0.007504
AU4454   AU        0.530000    0.324118    0.265294     0.007504
PD4455   PD        0.559412    0.294706    0.265294     0.005394
AU4456   AU        0.559412    0.324118    0.235882     0.007504
PD4457   PD        0.588824    0.294706    0.235882     0.005394
PD4458   PD        0.588824    0.324118    0.265294     0.005394
PD4459   PD        0.618235    0.294706    0.265294     0.005394
PD4460   PD        0.618235    0.324118    0.235882     0.005394
AU4461   AU        0.647647    0.294706    0.235882     0.007504
AU4462   AU        0.647647    0.324118    0.265294     0.007504
PD4463   PD        0.677059    0.294706    0.265294     0.005394
AU4464   AU        0.677059    0.324118    0.235882     0.007504
PD4466   PD        0.706471    0.324118    0.265294     0.005394
AU4495   AU        0.206471    0.353529    0.265294     0.007504
PD4497   PD        0.235882    0.353529    0.235882     0.005394
PD4498   PD        0.235882    0.382941    0.265294     0.005394
AU4499   AU        0.265294    0.353529    0.265294     0.007504
AU4500   AU        0.265294    0.382941    0.235882     0.007504
AU4501   AU        0.294706    0.353529    0.235882     0.007504
PD4502   PD        0.294706    0.382941    0.265294     0.005394
PD4503   PD        0.324118    0.353529    0.265294     0.005394
AU4504   AU        0.324118    0.382941    0.235882     0.007504
PD4505   PD        0.353529    0.353529    0.235882     0.005394
PD4506   PD        0.353529    0.382941    0.265294     0.005394
AU4507   AU        0.382941    0.353529    0.265294     0.007504
PD4508   PD        0.382941    0.382941    0.235882     0.005394
PD4509   PD        0.412353    0.353529    0.235882     0.005394
AU4510   AU        0.412353    0.382941    0.265294     0.007504
AU4511   AU        0.441765    0.353529    0.265294     0.007504
AU4512   AU        0.441765    0.382941    0.235882     0.007504
AU4513   AU        0.471176    0.353529    0.235882     0.007504
PD4514   PD        0.471176    0.382941    0.265294     0.005394
AU4515   AU        0.500588    0.353529    0.265294     0.007504
AU4516   AU        0.500588    0.382941    0.235882     0.007504
AU4517   AU        0.530000    0.353529    0.235882     0.007504
PD4518   PD        0.530000    0.382941    0.265294     0.005394
PD4519   PD        0.559412    0.353529    0.265294     0.005394
PD4520   PD        0.559412    0.382941    0.235882     0.005394
PD4521   PD        0.588824    0.353529    0.235882     0.005394
AU4522   AU        0.588824    0.382941    0.265294     0.007504
PD4523   PD        0.618235    0.353529    0.265294     0.005394
PD4524   PD        0.618235    0.382941    0.235882     0.005394
PD4525   PD        0.647647    0.353529    0.235882     0.005394
AU4526   AU        0.647647    0.382941    0.265294     0.007504
AU4527   AU        0.677059    0.353529    0.265294     0.007504
PD4528   PD        0.677059    0.382941    0.235882     0.005394
AU4529   AU        0.706471    0.353529    0.235882     0.007504
PD4530   PD        0.706471    0.382941    0.265294     0.005394
PD4531   PD        0.735882    0.353529    0.265294     0.005394
AU4558   AU        0.177059    0.441765    0.265294     0.007504
AU4559   AU        0.206471    0.412353    0.265294     0.007504
PD4560   PD        0.206471    0.441765    0.235882     0.005394
AU4561   AU        0.235882    0.412353    0.235882     0.007504
AU4562   AU        0.235882    0.441765    0.265294     0.007504
AU4563   AU        0.265294    0.412353    0.265294     0.007504
PD4564   PD        0.265294    0.441765    0.235882     0.005394
PD4565   PD        0.294706    0.412353    0.235882     0.005394
PD4566   PD        0.294706    0.441765    0.265294     0.005394
PD4567   PD        0.324118    0.412353    0.265294     0.005394
PD4568   PD        0.324118    0.441765    0.235882     0.005394
PD4569   PD        0.353529    0.412353    0.235882     0.005394
PD4570   PD        0.353529    0.441765    0.265294     0.005394
PD4571   PD        0.382941    0.412353    0.265294     0.005394
AU4572   AU        0.382941    0.441765    0.235882     0.007504
AU4573   AU        0.412353    0.412353    0.235882     0.007504
PD4574   PD        0.412353    0.441765    0.265294     0.005394
AU4575   AU        0.441765    0.412353    0.265294     0.007504
AU4576   AU        0.441765    0.441765    0.235882     0.007504
AU4577   AU        0.471176    0.412353    0.235882     0.007504
PD4578   PD        0.471176    0.441765    0.265294     0.005394
AU4579   AU        0.500588    0.412353    0.265294     0.007504
PD4580   PD        0.500588    0.441765    0.235882     0.005394
AU4581   AU        0.530000    0.412353    0.235882     0.007504
AU4582   AU        0.530000    0.441765    0.265294     0.007504
AU4583   AU        0.559412    0.412353    0.265294     0.007504
PD4584   PD        0.559412    0.441765    0.235882     0.005394
AU4585   AU        0.588824    0.412353    0.235882     0.007504
PD4586   PD        0.588824    0.441765    0.265294     0.005394
PD4587   PD        0.618235    0.412353    0.265294     0.005394
AU4588   AU        0.618235    0.441765    0.235882     0.007504
PD4589   PD        0.647647    0.412353    0.235882     0.005394
PD4590   PD        0.647647    0.441765    0.265294     0.005394
AU4591   AU        0.677059    0.412353    0.265294     0.007504
PD4592   PD        0.677059    0.441765    0.235882     0.005394
PD4593   PD        0.706471    0.412353    0.235882     0.005394
PD4594   PD        0.706471    0.441765    0.265294     0.005394
AU4595   AU        0.735882    0.412353    0.265294     0.007504
PD4596   PD        0.735882    0.441765    0.235882     0.005394
PD4598   PD        0.765294    0.441765    0.265294     0.005394
PD4622   PD        0.177059    0.500588    0.265294     0.005394
PD4623   PD        0.206471    0.471176    0.265294     0.005394
PD4624   PD        0.206471    0.500588    0.235882     0.005394
PD4625   PD        0.235882    0.471176    0.235882     0.005394
PD4626   PD        0.235882    0.500588    0.265294     0.005394
AU4627   AU        0.265294    0.471176    0.265294     0.007504
AU4628   AU        0.265294    0.500588    0.235882     0.007504
AU4629   AU        0.294706    0.471176    0.235882     0.007504
AU4630   AU        0.294706    0.500588    0.265294     0.007504
AU4631   AU        0.324118    0.471176    0.265294     0.007504
PD4632   PD        0.324118    0.500588    0.235882     0.005394
PD4633   PD        0.353529    0.471176    0.235882     0.005394
AU4634   AU        0.353529    0.500588    0.265294     0.007504
PD4635   PD        0.382941    0.471176    0.265294     0.005394
PD4636   PD        0.382941    0.500588    0.235882     0.005394
PD4637   PD        0.412353    0.471176    0.235882     0.005394
PD4638   PD        0.412353    0.500588    0.265294     0.005394
PD4639   PD        0.441765    0.471176    0.265294     0.005394
AU4640   AU        0.441765    0.500588    0.235882     0.007504
AU4641   AU        0.471176    0.471176    0.235882     0.007504
PD4642   PD        0.471176    0.500588    0.265294     0.005394
AU4643   AU        0.500588    0.471176    0.265294     0.007504
AU4644   AU        0.500588    0.500588    0.235882     0.007504
AU4645   AU        0.530000    0.471176    0.235882     0.007504
PD4646   PD        0.530000    0.500588    0.265294     0.005394
AU4647   AU        0.559412    0.471176    0.265294     0.007504
PD4648   PD        0.559412    0.500588    0.235882     0.005394
AU4649   AU        0.588824    0.471176    0.235882     0.007504
AU4650   AU        0.588824    0.500588    0.265294     0.007504
PD4651   PD        0.618235    0.471176    0.265294     0.005394
PD4652   PD        0.618235    0.500588    0.235882     0.005394
AU4653   AU        0.647647    0.471176    0.235882     0.007504
PD4654   PD        0.647647    0.500588    0.265294     0.005394
PD4655   PD        0.677059    0.471176    0.265294     0.005394
PD4656   PD        0.677059    0.500588    0.235882     0.005394
PD4657   PD        0.706471    0.471176    0.235882     0.005394
AU4658   AU        0.706471    0.500588    0.265294     0.007504
PD4659   PD        0.735882    0.471176    0.265294     0.005394
AU4660   AU        0.735882    0.500588    0.235882     0.007504
PD4662   PD        0.765294    0.500588    0.265294     0.005394
PD4687   PD        0.206471    0.530000    0.265294     0.005394
AU4689   AU        0.235882    0.530000    0.235882     0.007504
AU4690   AU        0.235882    0.559412    0.265294     0.007504
AU4691   AU        0.265294    0.530000    0.265294     0.007504
AU4692   AU        0.265294    0.559412    0.235882     0.007504
AU4693   AU        0.294706    0.530000    0.235882     0.007504
PD4694   PD        0.294706    0.559412    0.265294     0.005394
AU4695   AU        0.324118    0.530000    0.265294     0.007504
AU4696   AU        0.324118    0.559412    0.235882     0.007504
PD4697   PD        0.353529    0.530000    0.235882     0.005394
PD4698   PD        0.353529    0.559412    0.265294     0.005394
PD4699   PD        0.382941    0.530000    0.265294     0.005394
PD4700   PD        0.382941    0.559412    0.235882     0.005394
PD4701   PD        0.412353    0.530000    0.235882     0.005394
AU4702   AU        0.412353    0.559412    0.265294     0.007504
AU4703   AU        0.441765    0.530000    0.265294     0.007504
AU4704   AU        0.441765    0.559412    0.235882     0.007504
PD4705   PD        0.471176    0.530000    0.235882     0.005394
AU4706   AU        0.471176    0.559412    0.265294     0.007504
PD4707   PD        0.500588    0.530000    0.265294     0.005394
AU4708   AU        0.500588    0.559412    0.235882     0.007504
AU4709   AU        0.530000    0.530000    0.235882     0.007504
AU4710   AU        0.530000    0.559412    0.265294     0.007504
PD4711   PD        0.559412    0.530000    0.265294     0.005394
PD4712   PD        0.559412    0.559412    0.235882     0.005394
AU4713   AU        0.588824    0.530000    0.235882     0.007504
PD4714   PD        0.588824    0.559412    0.265294     0.005394
AU4715   AU        0.618235    0.530000    0.265294     0.007504
AU4716   AU        0.618235    0.559412    0.235882     0.007504
PD4717   PD        0.647647    0.530000    0.235882     0.005394
AU4718   AU        0.647647    0.559412    0.265294     0.007504
PD4719   PD        0.677059    0.530000    0.265294     0.005394
PD4720   PD        0.677059    0.559412    0.235882     0.005394
PD4721   PD        0.706471    0.530000    0.235882     0.005394
PD4722   PD        0.706471    0.559412    0.265294     0.005394
PD4723   PD        0.735882    0.530000    0.265294     0.005394
AU4751   AU        0.206471    0.588824    0.265294     0.007504
PD4753   PD        0.235882    0.588824    0.235882     0.005394
PD4754   PD        0.235882    0.618235    0.265294     0.005394
PD4755   PD        0.265294    0.588824    0.265294     0.005394
AU4756   AU        0.265294    0.618235    0.235882     0.007504
PD4757   PD        0.294706    0.588824    0.235882     0.005394
AU4758   AU        0.294706    0.618235    0.265294     0.007504
PD4759   PD        0.324118    0.588824    0.265294     0.005394
AU4760   AU        0.324118    0.618235    0.235882     0.007504
PD4761   PD        0.353529    0.588824    0.235882     0.005394
PD4762   PD        0.353529    0.618235    0.265294     0.005394
AU4763   AU        0.382941    0.588824    0.265294     0.007504
AU4764   AU        0.382941    0.618235    0.235882     0.007504
PD4765   PD        0.412353    0.588824    0.235882     0.005394
PD4766   PD        0.412353    0.618235    0.265294     0.005394
PD4767   PD        0.441765    0.588824    0.265294     0.005394
PD4768   PD        0.441765    0.618235    0.235882     0.005394
AU4769   AU        0.471176    0.588824    0.235882     0.007504
PD4770   PD        0.471176    0.618235    0.265294     0.005394
PD4771   PD        0.500588    0.588824    0.265294     0.005394
AU4772   AU        0.500588    0.618235    0.235882     0.007504
PD4773   PD        0.530000    0.588824    0.235882     0.005394
AU4774   AU        0.530000    0.618235    0.265294     0.007504
PD4775   PD        0.559412    0.588824    0.265294     0.005394
PD4776   PD        0.559412    0.618235    0.235882     0.005394
PD4777   PD        0.588824    0.588824    0.235882     0.005394
AU4778   AU        0.588824    0.618235    0.265294     0.007504
AU4779   AU        0.618235    0.588824    0.265294     0.007504
PD4780   PD        0.618235    0.618235    0.235882     0.005394
AU4781   AU        0.647647    0.588824    0.235882     0.007504
PD4782   PD        0.647647    0.618235    0.265294     0.005394
PD4783   PD        0.677059    0.588824    0.265294     0.005394
AU4784   AU        0.677059    0.618235    0.235882     0.007504
AU4785   AU        0.706471    0.588824    0.235882     0.007504
AU4786   AU        0.706471    0.618235    0.265294     0.007504
AU4787   AU        0.735882    0.588824    0.265294     0.007504
AU4819   AU        0.265294    0.647647    0.265294     0.007504
AU4821   AU        0.294706    0.647647    0.235882     0.007504
AU4822   AU        0.294706    0.677059    0.265294     0.007504
PD4823   PD        0.324118    0.647647    0.265294     0.005394
AU4824   AU        0.324118    0.677059    0.235882     0.007504
PD4825   PD        0.353529    0.647647    0.235882     0.005394
PD4826   PD        0.353529    0.677059    0.265294     0.005394
AU4827   AU        0.382941    0.647647    0.265294     0.007504
PD4828   PD        0.382941    0.677059    0.235882     0.005394
AU4829   AU        0.412353    0.647647    0.235882     0.007504
PD4830   PD        0.412353    0.677059    0.265294     0.005394
AU4831   AU        0.441765    0.647647    0.265294     0.007504
PD4832   PD        0.441765    0.677059    0.235882     0.005394
AU4833   AU        0.471176    0.647647    0.235882     0.007504
AU4834   AU        0.471176    0.677059    0.265294     0.007504
PD4835   PD        0.500588    0.647647    0.265294     0.005394
AU4836   AU        0.500588    0.677059    0.235882     0.007504
AU4837   AU        0.530000    0.647647    0.235882     0.007504
PD4838   PD        0.530000    0.677059    0.265294     0.005394
AU4839   AU        0.559412    0.647647    0.265294     0.007504
PD4840   PD        0.559412    0.677059    0.235882     0.005394
AU4841   AU        0.588824    0.647647    0.235882     0.007504
PD4842   PD        0.588824    0.677059    0.265294     0.005394
AU4843   AU        0.618235    0.647647    0.265294     0.007504
PD4844   PD        0.618235    0.677059    0.235882     0.005394
PD4845   PD        0.647647    0.647647    0.235882     0.005394
PD4846   PD        0.647647    0.677059    0.265294     0.005394
AU4847   AU        0.677059    0.647647    0.265294     0.007504
PD4887   PD        0.324118    0.706471    0.265294     0.005394
PD4889   PD        0.353529    0.706471    0.235882     0.005394
PD4890   PD        0.353529    0.735882    0.265294     0.005394
PD4891   PD        0.382941    0.706471    0.265294     0.005394
PD4893   PD        0.412353    0.706471    0.235882     0.005394
PD4894   PD        0.412353    0.735882    0.265294     0.005394
PD4895   PD        0.441765    0.706471    0.265294     0.005394
PD4896   PD        0.441765    0.735882    0.235882     0.005394
PD4897   PD        0.471176    0.706471    0.235882     0.005394
PD4898   PD        0.471176    0.735882    0.265294     0.005394
PD4899   PD        0.500588    0.706471    0.265294     0.005394
PD4900   PD        0.500588    0.735882    0.235882     0.005394
PD4901   PD        0.530000    0.706471    0.235882     0.005394
PD4902   PD        0.530000    0.735882    0.265294     0.005394
PD4903   PD        0.559412    0.706471    0.265294     0.005394
PD4905   PD        0.588824    0.706471    0.235882     0.005394
AU4906   AU        0.588824    0.735882    0.265294     0.007504
PD4907   PD        0.618235    0.706471    0.265294     0.005394
PD4959   PD        0.441765    0.765294    0.265294     0.005394
AU4963   AU        0.500588    0.765294    0.265294     0.007504
PD5278   PD        0.412353    0.147647    0.324118     0.005394
PD5282   PD        0.471176    0.147647    0.324118     0.005394
AU5286   AU        0.530000    0.147647    0.324118     0.007504
AU5334   AU        0.294706    0.206471    0.324118     0.007504
AU5335   AU        0.324118    0.177059    0.324118     0.007504
PD5336   PD        0.324118    0.206471    0.294706     0.005394
PD5338   PD        0.353529    0.206471    0.324118     0.005394
AU5339   AU        0.382941    0.177059    0.324118     0.007504
AU5340   AU        0.382941    0.206471    0.294706     0.007504
PD5341   PD        0.412353    0.177059    0.294706     0.005394
PD5342   PD        0.412353    0.206471    0.324118     0.005394
AU5343   AU        0.441765    0.177059    0.324118     0.007504
AU5344   AU        0.441765    0.206471    0.294706     0.007504
AU5345   AU        0.471176    0.177059    0.294706     0.007504
PD5346   PD        0.471176    0.206471    0.324118     0.005394
AU5347   AU        0.500588    0.177059    0.324118     0.007504
AU5348   AU        0.500588    0.206471    0.294706     0.007504
AU5349   AU        0.530000    0.177059    0.294706     0.007504
AU5350   AU        0.530000    0.206471    0.324118     0.007504
AU5351   AU        0.559412    0.177059    0.324118     0.007504
PD5352   PD        0.559412    0.206471    0.294706     0.005394
AU5354   AU        0.588824    0.206471    0.324118     0.007504
AU5355   AU        0.618235    0.177059    0.324118     0.007504
PD5356   PD        0.618235    0.206471    0.294706     0.005394
PD5358   PD        0.647647    0.206471    0.324118     0.005394
AU5394   AU        0.235882    0.265294    0.324118     0.007504
PD5395   PD        0.265294    0.235882    0.324118     0.005394
PD5396   PD        0.265294    0.265294    0.294706     0.005394
PD5397   PD        0.294706    0.235882    0.294706     0.005394
PD5398   PD        0.294706    0.265294    0.324118     0.005394
PD5399   PD        0.324118    0.235882    0.324118     0.005394
PD5400   PD        0.324118    0.265294    0.294706     0.005394
PD5401   PD        0.353529    0.235882    0.294706     0.005394
AU5402   AU        0.353529    0.265294    0.324118     0.007504
AU5403   AU        0.382941    0.235882    0.324118     0.007504
AU5404   AU        0.382941    0.265294    0.294706     0.007504
PD5405   PD        0.412353    0.235882    0.294706     0.005394
PD5406   PD        0.412353    0.265294    0.324118     0.005394
PD5407   PD        0.441765    0.235882    0.324118     0.005394
AU5408   AU        0.441765    0.265294    0.294706     0.007504
AU5409   AU        0.471176    0.235882    0.294706     0.007504
AU5410   AU        0.471176    0.265294    0.324118     0.007504
PD5411   PD        0.500588    0.235882    0.324118     0.005394
AU5412   AU        0.500588    0.265294    0.294706     0.007504
PD5413   PD        0.530000    0.235882    0.294706     0.005394
PD5414   PD        0.530000    0.265294    0.324118     0.005394
PD5415   PD        0.559412    0.235882    0.324118     0.005394
PD5416   PD        0.559412    0.265294    0.294706     0.005394
AU5417   AU        0.588824    0.235882    0.294706     0.007504
PD5418   PD        0.588824    0.265294    0.324118     0.005394
PD5419   PD        0.618235    0.235882    0.324118     0.005394
PD5420   PD        0.618235    0.265294    0.294706     0.005394
PD5421   PD        0.647647    0.235882    0.294706     0.005394
PD5422   PD        0.647647    0.265294    0.324118     0.005394
PD5423   PD        0.677059    0.235882    0.324118     0.005394
PD5424   PD        0.677059    0.265294    0.294706     0.005394
AU5426   AU        0.706471    0.265294    0.324118     0.007504
PD5454   PD        0.177059    0.324118    0.324118     0.005394
AU5455   AU        0.206471    0.294706    0.324118     0.007504
PD5456   PD        0.206471    0.324118    0.294706     0.005394
PD5457   PD        0.235882    0.294706    0.294706     0.005394
PD5458   PD        0.235882    0.324118    0.324118     0.005394
PD5459   PD        0.265294    0.294706    0.324118     0.005394
AU5460   AU        0.265294    0.324118    0.294706     0.007504
PD5461   PD        0.294706    0.294706    0.294706     0.005394
AU5462   AU        0.294706    0.324118    0.324118     0.007504
AU5463   AU        0.324118    0.294706    0.324118     0.007504
AU5464   AU        0.324118    0.324118    0.294706     0.007504
PD5465   PD        0.353529    0.294706    0.294706     0.005394
PD5466   PD        0.353529    0.324118    0.324118     0.005394
PD5467   PD        0.382941    0.294706    0.324118     0.005394
AU5468   AU        0.382941    0.324118    0.294706     0.007504
PD5469   PD        0.412353    0.294706    0.294706     0.005394
AU5470   AU        0.412353    0.324118    0.324118     0.007504
PD5471   PD        0.441765    0.294706    0.324118     0.005394
PD5472   PD        0.441765    0.324118    0.294706     0.005394
AU5473   AU        0.471176    0.294706    0.294706     0.007504
AU5474   AU        0.471176    0.324118    0.324118     0.007504
PD5475   PD        0.500588    0.294706    0.324118     0.005394
PD5476   PD        0.500588    0.324118    0.294706     0.005394
AU5477   AU        0.530000    0.294706    0.294706     0.007504
AU5478   AU        0.530000    0.324118    0.324118     0.007504
AU5479   AU        0.559412    0.294706    0.324118     0.007504
PD5480   PD        0.559412    0.324118    0.294706     0.005394
AU5481   AU        0.588824    0.294706    0.294706     0.007504
AU5482   AU        0.588824    0.324118    0.324118     0.007504
AU5483   AU        0.618235    0.294706    0.324118     0.007504
AU5484   AU        0.618235    0.324118    0.294706     0.007504
AU5485   AU        0.647647    0.294706    0.294706     0.007504
PD5486   PD        0.647647    0.324118    0.324118     0.005394
PD5487   PD        0.677059    0.294706    0.324118     0.005394
PD5488   PD        0.677059    0.324118    0.294706     0.005394
PD5489   PD        0.706471    0.294706    0.294706     0.005394
AU5490   AU        0.706471    0.324118    0.324118     0.007504
AU5491   AU        0.735882    0.294706    0.324118     0.007504
AU5492   AU        0.735882    0.324118    0.294706     0.007504
PD5494   PD        0.765294    0.324118    0.324118     0.005394
PD5518   PD        0.177059    0.382941    0.324118     0.005394
PD5519   PD        0.206471    0.353529    0.324118     0.005394
AU5520   AU        0.206471    0.382941    0.294706     0.007504
AU5521   AU        0.235882    0.353529    0.294706     0.007504
PD5522   PD        0.235882    0.382941    0.324118     0.005394
PD5523   PD        0.265294    0.353529    0.324118     0.005394
AU5524   AU        0.265294    0.382941    0.294706     0.007504
AU5525   AU        0.294706    0.353529    0.294706     0.007504
AU5526   AU        0.294706    0.382941    0.324118     0.007504
AU5527   AU        0.324118    0.353529    0.324118     0.007504
PD5528   PD        0.324118    0.382941    0.294706     0.005394
PD5529   PD        0.353529    0.353529    0.294706     0.005394
AU5530   AU        0.353529    0.382941    0.324118     0.007504
AU5531   AU        0.382941    0.353529    0.324118     0.007504
AU5532   AU        0.382941    0.382941    0.294706     0.007504
AU5533   AU        0.412353    0.353529    0.294706     0.007504
AU5534   AU        0.412353    0.382941    0.324118     0.007504
PD5535   PD        0.441765    0.353529    0.324118     0.005394
PD5536   PD        0.441765    0.382941    0.294706     0.005394
AU5537   AU        0.471176    0.353529    0.294706     0.007504
PD5538   PD        0.471176    0.382941    0.324118     0.005394
AU5539   AU        0.500588    0.353529    0.324118     0.007504
AU5540   AU        0.500588    0.382941    0.294706     0.007504
AU5541   AU        0.530000    0.353529    0.294706     0.007504
AU5542   AU        0.530000    0.382941    0.324118     0.007504
AU5543   AU        0.559412    0.353529    0.324118     0.007504
AU5544   AU        0.559412    0.382941    0.294706     0.007504
AU5545   AU        0.588824    0.353529    0.294706     0.007504
PD5546   PD        0.588824    0.382941    0.324118     0.005394
AU5547   AU        0.618235    0.353529    0.324118     0.007504
AU5548   AU        0.618235    0.382941    0.294706     0.007504
AU5549   AU        0.647647    0.353529    0.294706     0.007504
AU5550   AU        0.647647    0.382941    0.324118     0.007504
PD5551   PD        0.677059    0.353529    0.324118     0.005394
PD5552   PD        0.677059    0.382941    0.294706     0.005394
AU5553   AU        0.706471    0.353529    0.294706     0.007504
PD5554   PD        0.706471    0.382941    0.324118     0.005394
PD5555   PD        0.735882    0.353529    0.324118     0.005394
PD5556   PD        0.735882    0.382941    0.294706     0.005394
PD5558   PD        0.765294    0.382941    0.324118     0.005394
PD5579   PD        0.147647    0.412353    0.324118     0.005394
PD5581   PD        0.177059    0.412353    0.294706     0.005394
AU5582   AU        0.177059    0.441765    0.324118     0.007504
PD5583   PD        0.206471    0.412353    0.324118     0.005394
PD5584   PD        0.206471    0.441765    0.294706     0.005394
PD5585   PD        0.235882    0.412353    0.294706     0.005394
AU5586   AU        0.235882    0.441765    0.324118     0.007504
AU5587   AU        0.265294    0.412353    0.324118     0.007504
PD5588   PD        0.265294    0.441765    0.294706     0.005394
AU5589   AU        0.294706    0.412353    0.294706     0.007504
PD5590   PD        0.294706    0.441765    0.324118     0.005394
PD5591   PD        0.324118    0.412353    0.324118     0.005394
AU5592   AU        0.324118    0.441765    0.294706     0.007504
AU5593   AU        0.353529    0.412353    0.294706     0.007504
PD5594   PD        0.353529    0.441765    0.324118     0.005394
AU5595   AU        0.382941    0.412353    0.324118     0.007504
AU5596   AU        0.382941    0.441765    0.294706     0.007504
AU5597   AU        0.412353    0.412353    0.294706     0.007504
AU5598   AU        0.412353    0.441765    0.324118     0.007504
PD5599   PD        0.441765    0.412353    0.324118     0.005394
PD5600   PD        0.441765    0.441765    0.294706     0.005394
AU5601   AU        0.471176    0.412353    0.294706     0.007504
AU5602   AU        0.471176    0.441765    0.324118     0.007504
AU5603   AU        0.500588    0.412353    0.324118     0.007504
AU5604   AU        0.500588    0.441765    0.294706     0.007504
AU5605   AU        0.530000    0.412353    0.294706     0.007504
AU5606   AU        0.530000    0.441765    0.324118     0.007504
AU5607   AU        0.559412    0.412353    0.324118     0.007504
AU5608   AU        0.559412    0.441765    0.294706     0.007504
PD5609   PD        0.588824    0.412353    0.294706     0.005394
AU5610   AU        0.588824    0.441765    0.324118     0.007504
AU5611   AU        0.618235    0.412353    0.324118     0.007504
PD5612   PD        0.618235    0.441765    0.294706     0.005394
AU5613   AU        0.647647    0.412353    0.294706     0.007504
AU5614   AU        0.647647    0.441765    0.324118     0.007504
PD5615   PD        0.677059    0.412353    0.324118     0.005394
AU5616   AU        0.677059    0.441765    0.294706     0.007504
PD5617   PD        0.706471    0.412353    0.294706     0.005394
PD5618   PD        0.706471    0.441765    0.324118     0.005394
AU5619   AU        0.735882    0.412353    0.324118     0.007504
AU5620   AU        0.735882    0.441765    0.294706     0.007504
PD5621   PD        0.765294    0.412353    0.294706     0.005394
AU5622   AU        0.765294    0.441765    0.324118     0.007504
PD5623   PD        0.794706    0.412353    0.324118     0.005394
PD5643   PD        0.147647    0.471176    0.324118     0.005394
PD5645   PD        0.177059    0.471176    0.294706     0.005394
PD5646   PD        0.177059    0.500588    0.324118     0.005394
PD5647   PD        0.206471    0.471176    0.324118     0.005394
PD5648   PD        0.206471    0.500588    0.294706     0.005394
AU5649   AU        0.235882    0.471176    0.294706     0.007504
AU5650   AU        0.235882    0.500588    0.324118     0.007504
PD5651   PD        0.265294    0.471176    0.324118     0.005394
AU5652   AU        0.265294    0.500588    0.294706     0.007504
AU5653   AU        0.294706    0.471176    0.294706     0.007504
AU5654   AU        0.294706    0.500588    0.324118     0.007504
PD5655   PD        0.324118    0.471176    0.324118     0.005394
AU5656   AU        0.324118    0.500588    0.294706     0.007504
AU5657   AU        0.353529    0.471176    0.294706     0.007504
AU5658   AU        0.353529    0.500588    0.324118     0.007504
PD5659   PD        0.382941    0.471176    0.324118     0.005394
AU5660   AU        0.382941    0.500588    0.294706     0.007504
AU5661   AU        0.412353    0.471176    0.294706     0.007504
PD5662   PD        0.412353    0.500588    0.324118     0.005394
AU5663   AU        0.441765    0.471176    0.324118     0.007504
AU5664   AU        0.441765    0.500588    0.294706     0.007504
AU5665   AU        0.471176    0.471176    0.294706     0.007504
AU5666   AU        0.471176    0.500588    0.324118     0.007504
AU5667   AU        0.500588    0.471176    0.324118     0.007504
AU5668   AU        0.500588    0.500588    0.294706     0.007504
AU5669   AU        0.530000    0.471176    0.294706     0.007504
AU5670   AU        0.530000    0.500588    0.324118     0.007504
AU5671   AU        0.559412    0.471176    0.324118     0.007504
AU5672   AU        0.559412    0.500588    0.294706     0.007504
AU5673   AU        0.588824    0.471176    0.294706     0.007504
AU5674   AU        0.588824    0.500588    0.324118     0.007504
AU5675   AU        0.618235    0.471176    0.324118     0.007504
PD5676   PD        0.618235    0.500588    0.294706     0.005394
PD5677   PD        0.647647    0.471176    0.294706     0.005394
PD5678   PD        0.647647    0.500588    0.324118     0.005394
AU5679   AU        0.677059    0.471176    0.324118     0.007504
AU5680   AU        0.677059    0.500588    0.294706     0.007504
PD5681   PD        0.706471    0.471176    0.294706     0.005394
PD5682   PD        0.706471    0.500588    0.324118     0.005394
PD5683   PD        0.735882    0.471176    0.324118     0.005394
PD5684   PD        0.735882    0.500588    0.294706     0.005394
PD5685   PD        0.765294    0.471176    0.294706     0.005394
AU5686   AU        0.765294    0.500588    0.324118     0.007504
AU5687   AU        0.794706    0.471176    0.324118     0.007504
PD5707   PD        0.147647    0.530000    0.324118     0.005394
PD5709   PD        0.177059    0.530000    0.294706     0.005394
PD5710   PD        0.177059    0.559412    0.324118     0.005394
PD5711   PD        0.206471    0.530000    0.324118     0.005394
PD5712   PD        0.206471    0.559412    0.294706     0.005394
PD5713   PD        0.235882    0.530000    0.294706     0.005394
AU5714   AU        0.235882    0.559412    0.324118     0.007504
AU5715   AU        0.265294    0.530000    0.324118     0.007504
PD5716   PD        0.265294    0.559412    0.294706     0.005394
AU5717   AU        0.294706    0.530000    0.294706     0.007504
AU5718   AU        0.294706    0.559412    0.324118     0.007504
PD5719   PD        0.324118    0.530000    0.324118     0.005394
PD5720   PD        0.324118    0.559412    0.294706     0.005394
PD5721   PD        0.353529    0.530000    0.294706     0.005394
AU5722   AU        0.353529    0.559412    0.324118     0.007504
AU5723   AU        0.382941    0.530000    0.324118     0.007504
AU5724   AU        0.382941    0.559412    0.294706     0.007504
AU5725   AU        0.412353    0.530000    0.294706     0.007504
AU5726   AU        0.412353    0.559412    0.324118     0.007504
AU5727   AU        0.441765    0.530000    0.324118     0.007504
PD5728   PD        0.441765    0.559412    0.294706     0.005394
AU5729   AU        0.471176    0.530000    0.294706     0.007504
PD5730   PD        0.471176    0.559412    0.324118     0.005394
AU5731   AU        0.500588    0.530000    0.324118     0.007504
AU5732   AU        0.500588    0.559412    0.294706     0.007504
AU5733   AU        0.530000    0.530000    0.294706     0.007504
PD5734   PD        0.530000    0.559412    0.324118     0.005394
PD5735   PD        0.559412    0.530000    0.324118     0.005394
PD5736   PD        0.559412    0.559412    0.294706     0.005394
AU5737   AU        0.588824    0.530000    0.294706     0.007504
AU5738   AU        0.588824    0.559412    0.324118     0.007504
PD5739   PD        0.618235    0.530000    0.324118     0.005394
PD5740   PD        0.618235    0.559412    0.294706     0.005394
PD5741   PD        0.647647    0.530000    0.294706     0.005394
PD5742   PD        0.647647    0.559412    0.324118     0.005394
PD5743   PD        0.677059    0.530000    0.324118     0.005394
PD5744   PD        0.677059    0.559412    0.294706     0.005394
PD5745   PD        0.706471    0.530000    0.294706     0.005394
AU5746   AU        0.706471    0.559412    0.324118     0.007504
PD5747   PD        0.735882    0.530000    0.324118     0.005394
AU5748   AU        0.735882    0.559412    0.294706     0.007504
AU5749   AU        0.765294    0.530000    0.294706     0.007504
PD5750   PD        0.765294    0.559412    0.324118     0.005394
PD5751   PD        0.794706    0.530000    0.324118     0.005394
PD5774   PD        0.177059    0.618235    0.324118     0.005394
AU5775   AU        0.206471    0.588824    0.324118     0.007504
AU5776   AU        0.206471    0.618235    0.294706     0.007504
AU5777   AU        0.235882    0.588824    0.294706     0.007504
PD5778   PD        0.235882    0.618235    0.324118     0.005394
AU5779   AU        0.265294    0.588824    0.324118     0.007504
PD5780   PD        0.265294    0.618235    0.294706     0.005394
PD5781   PD        0.294706    0.588824    0.294706     0.005394
PD5782   PD        0.294706    0.618235    0.324118     0.005394
AU5783   AU        0.324118    0.588824    0.324118     0.007504
AU5784   AU        0.324118    0.618235    0.294706     0.007504
PD5785   PD        0.353529    0.588824    0.294706     0.005394
PD5786   PD        0.353529    0.618235    0.324118     0.005394
PD5787   PD        0.382941    0.588824    0.324118     0.005394
AU5788   AU        0.382941    0.618235    0.294706     0.007504
AU5789   AU        0.412353    0.588824    0.294706     0.007504
PD5790   PD        0.412353    0.618235    0.324118     0.005394
AU5791   AU        0.441765    0.588824    0.324118     0.007504
AU5792   AU        0.441765    0.618235    0.294706     0.007504
AU5793   AU        0.471176    0.588824    0.294706     0.007504
AU5794   AU        0.471176    0.618235    0.324118     0.007504
AU5795   AU        0.500588    0.588824    0.324118     0.007504
PD5796   PD        0.500588    0.618235    0.294706     0.005394
PD5797   PD        0.530000    0.588824    0.294706     0.005394
PD5798   PD        0.530000    0.618235    0.324118     0.005394
PD5799   PD        0.559412    0.588824    0.324118     0.005394
PD5800   PD        0.559412    0.618235    0.294706     0.005394
PD5801   PD        0.588824    0.588824    0.294706     0.005394
AU5802   AU        0.588824    0.618235    0.324118     0.007504
AU5803   AU        0.618235    0.588824    0.324118     0.007504
AU5804   AU        0.618235    0.618235    0.294706     0.007504
AU5805   AU        0.647647    0.588824    0.294706     0.007504
PD5806   PD        0.647647    0.618235    0.324118     0.005394
PD5807   PD        0.677059    0.588824    0.324118     0.005394
AU5808   AU        0.677059    0.618235    0.294706     0.007504
AU5809   AU        0.706471    0.588824    0.294706     0.007504
AU5810   AU        0.706471    0.618235    0.324118     0.007504
AU5811   AU        0.735882    0.588824    0.324118     0.007504
PD5812   PD        0.735882    0.618235    0.294706     0.005394
PD5814   PD        0.765294    0.618235    0.324118     0.005394
PD5839   PD        0.206471    0.647647    0.324118     0.005394
AU5841   AU        0.235882    0.647647    0.294706     0.007504
AU5842   AU        0.235882    0.677059    0.324118     0.007504
PD5843   PD        0.265294    0.647647    0.324118     0.005394
PD5844   PD        0.265294    0.677059    0.294706     0.005394
PD5845   PD        0.294706    0.647647    0.294706     0.005394
AU5846   AU        0.294706    0.677059    0.324118     0.007504
PD5847   PD        0.324118    0.647647    0.324118     0.005394
PD5848   PD        0.324118    0.677059    0.294706     0.005394
PD5849   PD        0.353529    0.647647    0.294706     0.005394
AU5850   AU        0.353529    0.677059    0.324118     0.007504
AU5851   AU        0.382941    0.647647    0.324118     0.007504
AU5852   AU        0.382941    0.677059    0.294706     0.007504
PD5853   PD        0.412353    0.647647    0.294706     0.005394
AU5854   AU        0.412353    0.677059    0.324118     0.007504
PD5855   PD        0.441765    0.647647    0.324118     0.005394
AU5856   AU        0.441765    0.677059    0.294706     0.007504
PD5857   PD        0.471176    0.647647    0.294706     0.005394
PD5858   PD        0.471176    0.677059    0.324118     0.005394
AU5859   AU        0.500588    0.647647    0.324118     0.007504
AU5860   AU        0.500588    0.677059    0.294706     0.007504
AU5861   AU        0.530000    0.647647    0.294706     0.007504
PD5862   PD        0.530000    0.677059    0.324118     0.005394
AU5863   AU        0.559412    0.647647    0.324118     0.007504
AU5864   AU        0.559412    0.677059    0.294706     0.007504
AU5865   AU        0.588824    0.647647    0.294706     0.007504
PD5866   PD        0.588824    0.677059    0.324118     0.005394
AU5867   AU        0.618235    0.647647    0.324118     0.007504
PD5868   PD        0.618235    0.677059    0.294706     0.005394
PD5869   PD        0.647647    0.647647    0.294706     0.005394
AU5870   AU        0.647647    0.677059    0.324118     0.007504
AU5871   AU        0.677059    0.647647    0.324118     0.007504
PD5872   PD        0.677059    0.677059    0.294706     0.005394
PD5873   PD        0.706471    0.647647    0.294706     0.005394
AU5874   AU        0.706471    0.677059    0.324118     0.007504
AU5875   AU        0.735882    0.647647    0.324118     0.007504
PD5907   PD        0.265294    0.706471    0.324118     0.005394
AU5909   AU        0.294706    0.706471    0.294706     0.007504
PD5910   PD        0.294706    0.735882    0.324118     0.005394
PD5911   PD        0.324118    0.706471    0.324118     0.005394
PD5912   PD        0.324118    0.735882    0.294706     0.005394
PD5913   PD        0.353529    0.706471    0.294706     0.005394
PD5914   PD        0.353529    0.735882    0.324118     0.005394
AU5915   AU        0.382941    0.706471    0.324118     0.007504
AU5916   AU        0.382941    0.735882    0.294706     0.007504
PD5917   PD        0.412353    0.706471    0.294706     0.005394
PD5918   PD        0.412353    0.735882    0.324118     0.005394
AU5919   AU        0.441765    0.706471    0.324118     0.007504
AU5920   AU        0.441765    0.735882    0.294706     0.007504
AU5921   AU        0.471176    0.706471    0.294706     0.007504
AU5922   AU        0.471176    0.735882    0.324118     0.007504
PD5923   PD        0.500588    0.706471    0.324118     0.005394
AU5924   AU        0.500588    0.735882    0.294706     0.007504
PD5925   PD        0.530000    0.706471    0.294706     0.005394
PD5926   PD        0.530000    0.735882    0.324118     0.005394
AU5927   AU        0.559412    0.706471    0.324118     0.007504
PD5928   PD        0.559412    0.735882    0.294706     0.005394
AU5929   AU        0.588824    0.706471    0.294706     0.007504
AU5930   AU        0.588824    0.735882    0.324118     0.007504
PD5931   PD        0.618235    0.706471    0.324118     0.005394
AU5932   AU        0.618235    0.735882    0.294706     0.007504
PD5933   PD        0.647647    0.706471    0.294706     0.005394
PD5934   PD        0.647647    0.735882    0.324118     0.005394
AU5935   AU        0.677059    0.706471    0.324118     0.007504
AU5975   AU        0.324118    0.765294    0.324118     0.007504
AU5979   AU        0.382941    0.765294    0.324118     0.007504
PD5981   PD        0.412353    0.765294    0.294706     0.005394
AU5982   AU        0.412353    0.794706    0.324118     0.007504
PD5983   PD        0.441765    0.765294    0.324118     0.005394
PD5985   PD        0.471176    0.765294    0.294706     0.005394
PD5986   PD        0.471176    0.794706    0.324118     0.005394
AU5987   AU        0.500588    0.765294    0.324118     0.007504
PD5989   PD        0.530000    0.765294    0.294706     0.005394
AU5990   AU        0.530000    0.794706    0.324118     0.007504
AU5991   AU        0.559412    0.765294    0.324118     0.007504
PD5995   PD        0.618235    0.765294    0.324118     0.005394
AU6298   AU        0.353529    0.147647    0.382941     0.007504
AU6300   AU        0.382941    0.147647    0.353529     0.007504
PD6302   PD        0.412353    0.147647    0.382941     0.005394
PD6304   PD        0.441765    0.147647    0.353529     0.005394
PD6306   PD        0.471176    0.147647    0.382941     0.005394
AU6308   AU        0.500588    0.147647    0.353529     0.007504
PD6310   PD        0.530000    0.147647    0.382941     0.005394
PD6312   PD        0.559412    0.147647    0.353529     0.005394
PD6314   PD        0.588824    0.147647    0.382941     0.005394
PD6356   PD        0.265294    0.206471    0.353529     0.005394
PD6358   PD        0.294706    0.206471    0.382941     0.005394
PD6359   PD        0.324118    0.177059    0.382941     0.005394
PD6360   PD        0.324118    0.206471    0.353529     0.005394
AU6361   AU        0.353529    0.177059    0.353529     0.007504
PD6362   PD        0.353529    0.206471    0.382941     0.005394
PD6363   PD        0.382941    0.177059    0.382941     0.005394
PD6364   PD        0.382941    0.206471    0.353529     0.005394
PD6365   PD        0.412353    0.177059    0.353529     0.005394
PD6366   PD        0.412353    0.206471    0.382941     0.005394
AU6367   AU        0.441765    0.177059    0.382941     0.007504
AU6368   AU        0.441765    0.206471    0.353529     0.007504
PD6369   PD        0.471176    0.177059    0.353529     0.005394
PD6370   PD        0.471176    0.206471    0.382941     0.005394
AU6371   AU        0.500588    0.177059    0.382941     0.007504
AU6372   AU        0.500588    0.206471    0.353529     0.007504
AU6373   AU        0.530000    0.177059    0.353529     0.007504
AU6374   AU        0.530000    0.206471    0.382941     0.007504
PD6375   PD        0.559412    0.177059    0.382941     0.005394
PD6376   PD        0.559412    0.206471    0.353529     0.005394
PD6377   PD        0.588824    0.177059    0.353529     0.005394
PD6378   PD        0.588824    0.206471    0.382941     0.005394
PD6379   PD        0.618235    0.177059    0.382941     0.005394
PD6380   PD        0.618235    0.206471    0.353529     0.005394
AU6382   AU        0.647647    0.206471    0.382941     0.007504
PD6384   PD        0.677059    0.206471    0.353529     0.005394
PD6416   PD        0.206471    0.265294    0.353529     0.005394
PD6417   PD        0.235882    0.235882    0.353529     0.005394
PD6418   PD        0.235882    0.265294    0.382941     0.005394
AU6419   AU        0.265294    0.235882    0.382941     0.007504
AU6420   AU        0.265294    0.265294    0.353529     0.007504
PD6421   PD        0.294706    0.235882    0.353529     0.005394
PD6422   PD        0.294706    0.265294    0.382941     0.005394
PD6423   PD        0.324118    0.235882    0.382941     0.005394
AU6424   AU        0.324118    0.265294    0.353529     0.007504
AU6425   AU        0.353529    0.235882    0.353529     0.007504
AU6426   AU        0.353529    0.265294    0.382941     0.007504
AU6427   AU        0.382941    0.235882    0.382941     0.007504
PD6428   PD        0.382941    0.265294    0.353529     0.005394
PD6429   PD        0.412353    0.235882    0.353529     0.005394
PD6430   PD        0.412353    0.265294    0.382941     0.005394
AU6431   AU        0.441765    0.235882    0.382941     0.007504
AU6432   AU        0.441765    0.265294    0.353529     0.007504
AU6433   AU        0.471176    0.235882    0.353529     0.007504
PD6434   PD        0.471176    0.265294    0.382941     0.005394
PD6435   PD        0.500588    0.235882    0.382941     0.005394
AU6436   AU        0.500588    0.265294    0.353529     0.007504
AU6437   AU        0.530000    0.235882    0.353529     0.007504
PD6438   PD        0.530000    0.265294    0.382941     0.005394
PD6439   PD        0.559412    0.235882    0.382941     0.005394
AU6440   AU        0.559412    0.265294    0.353529     0.007504
PD6441   PD        0.588824    0.235882    0.353529     0.005394
AU6442   AU        0.588824    0.265294    0.382941     0.007504
AU6443   AU        0.618235    0.235882    0.382941     0.007504
PD6444   PD        0.618235    0.265294    0.353529     0.005394
AU6445   AU        0.647647    0.235882    0.353529     0.007504
PD6446   PD        0.647647    0.265294    0.382941     0.005394
AU6447   AU        0.677059    0.235882    0.382941     0.007504
AU6448   AU        0.677059    0.265294    0.353529     0.007504
AU6449   AU        0.706471    0.235882    0.353529     0.007504
PD6450   PD        0.706471    0.265294    0.382941     0.005394
PD6452   PD        0.735882    0.265294    0.353529     0.005394
AU6478   AU        0.177059    0.324118    0.382941     0.007504
PD6479   PD        0.206471    0.294706    0.382941     0.005394
AU6480   AU        0.206471    0.324118    0.353529     0.007504
PD6481   PD        0.235882    0.294706    0.353529     0.005394
AU6482   AU        0.235882    0.324118    0.382941     0.007504
AU6483   AU        0.265294    0.294706    0.382941     0.007504
AU6484   AU        0.265294    0.324118    0.353529     0.007504
AU6485   AU        0.294706    0.294706    0.353529     0.007504
PD6486   PD        0.294706    0.324118    0.382941     0.005394
PD6487   PD        0.324118    0.294706    0.382941     0.005394
AU6488   AU        0.324118    0.324118    0.353529     0.007504
AU6489   AU        0.353529    0.294706    0.353529     0.007504
PD6490   PD        0.353529    0.324118    0.382941     0.005394
PD6491   PD        0.382941    0.294706    0.382941     0.005394
AU6492   AU        0.382941    0.324118    0.353529     0.007504
PD6493   PD        0.412353    0.294706    0.353529     0.005394
PD6494   PD        0.412353    0.324118    0.382941     0.005394
PD6495   PD        0.441765    0.294706    0.382941     0.005394
AU6496   AU        0.441765    0.324118    0.353529     0.007504
AU6497   AU        0.471176    0.294706    0.353529     0.007504
AU6498   AU        0.471176    0.324118    0.382941     0.007504
AU6499   AU        0.500588    0.294706    0.382941     0.007504
PD6500   PD        0.500588    0.324118    0.353529     0.005394
AU6501   AU        0.530000    0.294706    0.353529     0.007504
AU6502   AU        0.530000    0.324118    0.382941     0.007504
PD6503   PD        0.559412    0.294706    0.382941     0.005394
AU6504   AU        0.559412    0.324118    0.353529     0.007504
PD6505   PD        0.588824    0.294706    0.353529     0.005394
AU6506   AU        0.588824    0.324118    0.382941     0.007504
PD6507   PD        0.618235    0.294706    0.382941     0.005394
PD6508   PD        0.618235    0.324118    0.353529     0.005394
PD6509   PD        0.647647    0.294706    0.353529     0.005394
PD6510   PD        0.647647    0.324118    0.382941     0.005394
AU6511   AU        0.677059    0.294706    0.382941     0.007504
PD6512   PD        0.677059    0.324118    0.353529     0.005394
PD6513   PD        0.706471    0.294706    0.353529     0.005394
PD6514   PD        0.706471    0.324118    0.382941     0.005394
AU6515   AU        0.735882    0.294706    0.382941     0.007504
PD6516   PD        0.735882    0.324118    0.353529     0.005394
AU6518   AU        0.765294    0.324118    0.382941     0.007504
PD6539   PD        0.147647    0.353529    0.382941     0.005394
PD6540   PD        0.147647    0.382941    0.353529     0.005394
PD6541   PD        0.177059    0.353529    0.353529     0.005394
AU6542   AU        0.177059    0.382941    0.382941     0.007504
PD6543   PD        0.206471    0.353529    0.382941     0.005394
PD6544   PD        0.206471    0.382941    0.353529     0.005394
AU6545   AU        0.235882    0.353529    0.353529     0.007504
PD6546   PD        0.235882    0.382941    0.382941     0.005394
AU6547   AU        0.265294    0.353529    0.382941     0.007504
PD6548   PD        0.265294    0.382941    0.353529     0.005394
AU6549   AU        0.294706    0.353529    0.353529     0.007504
PD6550   PD        0.294706    0.382941    0.382941     0.005394
AU6551   AU        0.324118    0.353529    0.382941     0.007504
PD6552   PD        0.324118    0.382941    0.353529     0.005394
AU6553   AU        0.353529    0.353529    0.353529     0.007504
AU6554   AU        0.353529    0.382941    0.382941     0.007504
AU6555   AU        0.382941    0.353529    0.382941     0.007504
PD6556   PD        0.382941    0.382941    0.353529     0.005394
AU6557   AU        0.412353    0.353529    0.353529     0.007504
AU6558   AU        0.412353    0.382941    0.382941     0.007504
PD6559   PD        0.441765    0.353529    0.382941     0.005394
AU6560   AU        0.441765    0.382941    0.353529     0.007504
PD6561   PD        0.471176    0.353529    0.353529     0.005394
AU6562   AU        0.471176    0.382941    0.382941     0.007504
AU6563   AU        0.500588    0.353529    0.382941     0.007504
AU6564   AU        0.500588    0.382941    0.353529     0.007504
PD6565   PD        0.530000    0.353529    0.353529     0.005394
AU6566   AU        0.530000    0.382941    0.382941     0.007504
AU6567   AU        0.559412    0.353529    0.382941     0.007504
AU6568   AU        0.559412    0.382941    0.353529     0.007504
AU6569   AU        0.588824    0.353529    0.353529     0.007504
AU6570   AU        0.588824    0.382941    0.382941     0.007504
PD6571   PD        0.618235    0.353529    0.382941     0.005394
AU6572   AU        0.618235    0.382941    0.353529     0.007504
AU6573   AU        0.647647    0.353529    0.353529     0.007504
PD6574   PD        0.647647    0.382941    0.382941     0.005394
AU6575   AU        0.677059    0.353529    0.382941     0.007504
PD6576   PD        0.677059    0.382941    0.353529     0.005394
PD6577   PD        0.706471    0.353529    0.353529     0.005394
AU6578   AU        0.706471    0.382941    0.382941     0.007504
PD6579   PD        0.735882    0.353529    0.382941     0.005394
AU6580   AU        0.735882    0.382941    0.353529     0.007504
AU6581   AU        0.765294    0.353529    0.353529     0.007504
PD6582   PD        0.765294    0.382941    0.382941     0.005394
PD6583   PD        0.794706    0.353529    0.382941     0.005394
PD6584   PD        0.794706    0.382941    0.353529     0.005394
AU6603   AU        0.147647    0.412353    0.382941     0.007504
AU6604   AU        0.147647    0.441765    0.353529     0.007504
AU6605   AU        0.177059    0.412353    0.353529     0.007504
AU6606   AU        0.177059    0.441765    0.382941     0.007504
PD6607   PD        0.206471    0.412353    0.382941     0.005394
PD6608   PD        0.206471    0.441765    0.353529     0.005394
AU6609   AU        0.235882    0.412353    0.353529     0.007504
PD6610   PD        0.235882    0.441765    0.382941     0.005394
PD6611   PD        0.265294    0.412353    0.382941     0.005394
AU6612   AU        0.265294    0.441765    0.353529     0.007504
AU6613   AU        0.294706    0.412353    0.353529     0.007504
PD6614   PD        0.294706    0.441765    0.382941     0.005394
PD6615   PD        0.324118    0.412353    0.382941     0.005394
AU6616   AU        0.324118    0.441765    0.353529     0.007504
AU6617   AU        0.353529    0.412353    0.353529     0.007504
PD6618   PD        0.353529    0.441765    0.382941     0.005394
PD6619   PD        0.382941    0.412353    0.382941     0.005394
AU6620   AU        0.382941    0.441765    0.353529     0.007504
AU6621   AU        0.412353    0.412353    0.353529     0.007504
AU6622   AU        0.412353    0.441765    0.382941     0.007504
AU6623   AU        0.441765    0.412353    0.382941     0.007504
AU6624   AU        0.441765    0.441765    0.353529     0.007504
AU6625   AU        0.471176    0.412353    0.353529     0.007504
AU6626   AU        0.471176    0.441765    0.382941     0.007504
AU6627   AU        0.500588    0.412353    0.382941     0.007504
AU6628   AU        0.500588    0.441765    0.353529     0.007504
PD6629   PD        0.530000    0.412353    0.353529     0.005394
AU6630   AU        0.530000    0.441765    0.382941     0.007504
AU6631   AU        0.559412    0.412353    0.382941     0.007504
AU6632   AU        0.559412    0.441765    0.353529     0.007504
AU6633   AU        0.588824    0.412353    0.353529     0.007504
AU6634   AU        0.588824    0.441765    0.382941     0.007504
PD6635   PD        0.618235    0.412353    0.382941     0.005394
AU6636   AU        0.618235    0.441765    0.353529     0.007504
AU6637   AU        0.647647    0.412353    0.353529     0.007504
AU6638   AU        0.647647    0.441765    0.382941     0.007504
PD6639   PD        0.677059    0.412353    0.382941     0.005394
AU6640   AU        0.677059    0.441765    0.353529     0.007504
AU6641   AU        0.706471    0.412353    0.353529     0.007504
PD6642   PD        0.706471    0.441765    0.382941     0.005394
AU6643   AU        0.735882    0.412353    0.382941     0.007504
AU6644   AU        0.735882    0.441765    0.353529     0.007504
PD6645   PD        0.765294    0.412353    0.353529     0.005394
AU6646   AU        0.765294    0.441765    0.382941     0.007504
PD6647   PD        0.794706    0.412353    0.382941     0.005394
PD6648   PD        0.794706    0.441765    0.353529     0.005394
PD6667   PD        0.147647    0.471176    0.382941     0.005394
AU6668   AU        0.147647    0.500588    0.353529     0.007504
PD6669   PD        0.177059    0.471176    0.353529     0.005394
PD6670   PD        0.177059    0.500588    0.382941     0.005394
PD6671   PD        0.206471    0.471176    0.382941     0.005394
AU6672   AU        0.206471    0.500588    0.353529     0.007504
PD6673   PD        0.235882    0.471176    0.353529     0.005394
PD6674   PD        0.235882    0.500588    0.382941     0.005394
AU6675   AU        0.265294    0.471176    0.382941     0.007504
AU6676   AU        0.265294    0.500588    0.353529     0.007504
AU6677   AU        0.294706    0.471176    0.353529     0.007504
PD6678   PD        0.294706    0.500588    0.382941     0.005394
PD6679   PD        0.324118    0.471176    0.382941     0.005394
PD6680   PD        0.324118    0.500588    0.353529     0.005394
AU6681   AU        0.353529    0.471176    0.353529     0.007504
PD6682   PD        0.353529    0.500588    0.382941     0.005394
PD6683   PD        0.382941    0.471176    0.382941     0.005394
AU6684   AU        0.382941    0.500588    0.353529     0.007504
AU6685   AU        0.412353    0.471176    0.353529     0.007504
AU6686   AU        0.412353    0.500588    0.382941     0.007504
PD6687   PD        0.441765    0.471176    0.382941     0.005394
AU6688   AU        0.441765    0.500588    0.353529     0.007504
AU6689   AU        0.471176    0.471176    0.353529     0.007504
AU6690   AU        0.471176    0.500588    0.382941     0.007504
PD6691   PD        0.500588    0.471176    0.382941     0.005394
PD6692   PD        0.500588    0.500588    0.353529     0.005394
AU6693   AU        0.530000    0.471176    0.353529     0.007504
AU6694   AU        0.530000    0.500588    0.382941     0.007504
PD6695   PD        0.559412    0.471176    0.382941     0.005394
AU6696   AU        0.559412    0.500588    0.353529     0.007504
AU6697   AU        0.588824    0.471176    0.353529     0.007504
PD6698   PD        0.588824    0.500588    0.382941     0.005394
AU6699   AU        0.618235    0.471176    0.382941     0.007504
AU6700   AU        0.618235    0.500588    0.353529     0.007504
PD6701   PD        0.647647    0.471176    0.353529     0.005394
PD6702   PD        0.647647    0.500588    0.382941     0.005394
PD6703   PD        0.677059    0.471176    0.382941     0.005394
PD6704   PD        0.677059    0.500588    0.353529     0.005394
AU6705   AU        0.706471    0.471176    0.353529     0.007504
PD6706   PD        0.706471    0.500588    0.382941     0.005394
PD6707   PD        0.735882    0.471176    0.382941     0.005394
AU6708   AU        0.735882    0.500588    0.353529     0.007504
AU6709   AU        0.765294    0.471176    0.353529     0.007504
PD6710   PD        0.765294    0.500588    0.382941     0.005394
PD6711   PD        0.794706    0.471176    0.382941     0.005394
PD6712   PD        0.794706    0.500588    0.353529     0.005394
PD6731   PD        0.147647    0.530000    0.382941     0.005394
AU6732   AU        0.147647    0.559412    0.353529     0.007504
AU6733   AU        0.177059    0.530000    0.353529     0.007504
PD6734   PD        0.177059    0.559412    0.382941     0.005394
PD6735   PD        0.206471    0.530000    0.382941     0.005394
AU6736   AU        0.206471    0.559412    0.353529     0.007504
PD6737   PD        0.235882    0.530000    0.353529     0.005394
PD6738   PD        0.235882    0.559412    0.382941     0.005394
PD6739   PD        0.265294    0.530000    0.382941     0.005394
AU6740   AU        0.265294    0.559412    0.353529     0.007504
PD6741   PD        0.294706    0.530000    0.353529     0.005394
PD6742   PD        0.294706    0.559412    0.382941     0.005394
AU6743   AU        0.324118    0.530000    0.382941     0.007504
PD6744   PD        0.324118    0.559412    0.353529     0.005394
AU6745   AU        0.353529    0.530000    0.353529     0.007504
PD6746   PD        0.353529    0.559412    0.382941     0.005394
PD6747   PD        0.382941    0.530000    0.382941     0.005394
AU6748   AU        0.382941    0.559412    0.353529     0.007504
AU6749   AU        0.412353    0.530000    0.353529     0.007504
AU6750   AU        0.412353    0.559412    0.382941     0.007504
AU6751   AU        0.441765    0.530000    0.382941     0.007504
AU6752   AU        0.441765    0.559412    0.353529     0.007504
AU6753   AU        0.471176    0.530000    0.353529     0.007504
AU6754   AU        0.471176    0.559412    0.382941     0.007504
AU6755   AU        0.500588    0.530000    0.382941     0.007504
AU6756   AU        0.500588    0.559412    0.353529     0.007504
PD6757   PD        0.530000    0.530000    0.353529     0.005394
AU6758   AU        0.530000    0.559412    0.382941     0.007504
PD6759   PD        0.559412    0.530000    0.382941     0.005394
PD6760   PD        0.559412    0.559412    0.353529     0.005394
AU6761   AU        0.588824    0.530000    0.353529     0.007504
PD6762   PD        0.588824    0.559412    0.382941     0.005394
PD6763   PD        0.618235    0.530000    0.382941     0.005394
PD6764   PD        0.618235    0.559412    0.353529     0.005394
PD6765   PD        0.647647    0.530000    0.353529     0.005394
PD6766   PD        0.647647    0.559412    0.382941     0.005394
PD6767   PD        0.677059    0.530000    0.382941     0.005394
AU6768   AU        0.677059    0.559412    0.353529     0.007504
AU6769   AU        0.706471    0.530000    0.353529     0.007504
PD6770   PD        0.706471    0.559412    0.382941     0.005394
AU6771   AU        0.735882    0.530000    0.382941     0.007504
PD6772   PD        0.735882    0.559412    0.353529     0.005394
PD6773   PD        0.765294    0.530000    0.353529     0.005394
PD6774   PD        0.765294    0.559412    0.382941     0.005394
AU6775   AU        0.794706    0.530000    0.382941     0.007504
PD6776   PD        0.794706    0.559412    0.353529     0.005394
PD6795   PD        0.147647    0.588824    0.382941     0.005394
AU6797   AU        0.177059    0.588824    0.353529     0.007504
AU6798   AU        0.177059    0.618235    0.382941     0.007504
PD6799   PD        0.206471    0.588824    0.382941     0.005394
PD6800   PD        0.206471    0.618235    0.353529     0.005394
PD6801   PD        0.235882    0.588824    0.353529     0.005394
AU6802   AU        0.235882    0.618235    0.382941     0.007504
PD6803   PD        0.265294    0.588824    0.382941     0.005394
AU6804   AU        0.265294    0.618235    0.353529     0.007504
PD6805   PD        0.294706    0.588824    0.353529     0.005394
AU6806   AU        0.294706    0.618235    0.382941     0.007504
AU6807   AU        0.324118    0.588824    0.382941     0.007504
AU6808   AU        0.324118    0.618235    0.353529     0.007504
PD6809   PD        0.353529    0.588824    0.353529     0.005394
AU6810   AU        0.353529    0.618235    0.382941     0.007504
AU6811   AU        0.382941    0.588824    0.382941     0.007504
AU6812   AU        0.382941    0.618235    0.353529     0.007504
AU6813   AU        0.412353    0.588824    0.353529     0.007504
PD6814   PD        0.412353    0.618235    0.382941     0.005394
PD6815   PD        0.441765    0.588824    0.382941     0.005394
AU6816   AU        0.441765    0.618235    0.353529     0.007504
PD6817   PD        0.471176    0.588824    0.353529     0.005394
AU6818   AU        0.471176    0.618235    0.382941     0.007504
AU6819   AU        0.500588    0.588824    0.382941     0.007504
PD6820   PD        0.500588    0.618235    0.353529     0.005394
PD6821   PD        0.530000    0.588824    0.353529     0.005394
AU6822   AU        0.530000    0.618235    0.382941     0.007504
AU6823   AU        0.559412    0.588824    0.382941     0.007504
PD6824   PD        0.559412    0.618235    0.353529     0.005394
AU6825   AU        0.588824    0.588824    0.353529     0.007504
PD6826   PD        0.588824    0.618235    0.382941     0.005394
PD6827   PD        0.618235    0.588824    0.382941     0.005394
AU6828   AU        0.618235    0.618235    0.353529     0.007504
AU6829   AU        0.647647    0.588824    0.353529     0.007504
PD6830   PD        0.647647    0.618235    0.382941     0.005394
AU6831   AU        0.677059    0.588824    0.382941     0.007504
PD6832   PD        0.677059    0.618235    0.353529     0.005394
AU6833   AU        0.706471    0.588824    0.353529     0.007504
PD6834   PD        0.706471    0.618235    0.382941     0.005394
PD6835   PD        0.735882    0.588824    0.382941     0.005394
PD6836   PD        0.735882    0.618235    0.353529     0.005394
PD6837   PD        0.765294    0.588824    0.353529     0.005394
AU6838   AU        0.765294    0.618235    0.382941     0.007504
PD6839   PD        0.794706    0.588824    0.382941     0.005394
PD6863   PD        0.206471    0.647647    0.382941     0.005394
PD6864   PD        0.206471    0.677059    0.353529     0.005394
PD6865   PD        0.235882    0.647647    0.353529     0.005394
AU6866   AU        0.235882    0.677059    0.382941     0.007504
PD6867   PD        0.265294    0.647647    0.382941     0.005394
PD6868   PD        0.265294    0.677059    0.353529     0.005394
PD6869   PD        0.294706    0.647647    0.353529     0.005394
AU6870   AU        0.294706    0.677059    0.382941     0.007504
AU6871   AU        0.324118    0.647647    0.382941     0.007504
PD6872   PD        0.324118    0.677059    0.353529     0.005394
PD6873   PD        0.353529    0.647647    0.353529     0.005394
AU6874   AU        0.353529    0.677059    0.382941     0.007504
AU6875   AU        0.382941    0.647647    0.382941     0.007504
AU6876   AU        0.382941    0.677059    0.353529     0.007504
AU6877   AU        0.412353    0.647647    0.353529     0.007504
AU6878   AU        0.412353    0.677059    0.382941     0.007504
PD6879   PD        0.441765    0.647647    0.382941     0.005394
AU6880   AU        0.441765    0.677059    0.353529     0.007504
AU6881   AU        0.471176    0.647647    0.353529     0.007504
PD6882   PD        0.471176    0.677059    0.382941     0.005394
AU6883   AU        0.500588    0.647647    0.382941     0.007504
PD6884   PD        0.500588    0.677059    0.353529     0.005394
PD6885   PD        0.530000    0.647647    0.353529     0.005394
AU6886   AU        0.530000    0.677059    0.382941     0.007504
AU6887   AU        0.559412    0.647647    0.382941     0.007504
PD6888   PD        0.559412    0.677059    0.353529     0.005394
PD6889   PD        0.588824    0.647647    0.353529     0.005394
PD6890   PD        0.588824    0.677059    0.382941     0.005394
AU6891   AU        0.618235    0.647647    0.382941     0.007504
AU6892   AU        0.618235    0.677059    0.353529     0.007504
PD6893   PD        0.647647    0.647647    0.353529     0.005394
PD6894   PD        0.647647    0.677059    0.382941     0.005394
AU6895   AU        0.677059    0.647647    0.382941     0.007504
AU6896   AU        0.677059    0.677059    0.353529     0.007504
PD6897   PD        0.706471    0.647647    0.353529     0.005394
PD6898   PD        0.706471    0.677059    0.382941     0.005394
AU6899   AU        0.735882    0.647647    0.382941     0.007504
PD6900   PD        0.735882    0.677059    0.353529     0.005394
PD6929   PD        0.235882    0.706471    0.353529     0.005394
PD6931   PD        0.265294    0.706471    0.382941     0.005394
PD6932   PD        0.265294    0.735882    0.353529     0.005394
AU6933   AU        0.294706    0.706471    0.353529     0.007504
PD6934   PD        0.294706    0.735882    0.382941     0.005394
AU6935   AU        0.324118    0.706471    0.382941     0.007504
PD6936   PD        0.324118    0.735882    0.353529     0.005394
PD6937   PD        0.353529    0.706471    0.353529     0.005394
AU6938   AU        0.353529    0.735882    0.382941     0.007504
AU6939   AU        0.382941    0.706471    0.382941     0.007504
PD6940   PD        0.382941    0.735882    0.353529     0.005394
PD6941   PD        0.412353    0.706471    0.353529     0.005394
AU6942   AU        0.412353    0.735882    0.382941     0.007504
AU6943   AU        0.441765    0.706471    0.382941     0.007504
PD6944   PD        0.441765    0.735882    0.353529     0.005394
AU6945   AU        0.471176    0.706471    0.353529     0.007504
AU6946   AU        0.471176    0.735882    0.382941     0.007504
AU6947   AU        0.500588    0.706471    0.382941     0.007504
PD6948   PD        0.500588    0.735882    0.353529     0.005394
PD6949   PD        0.530000    0.706471    0.353529     0.005394
PD6950   PD        0.530000    0.735882    0.382941     0.005394
AU6951   AU        0.559412    0.706471    0.382941     0.007504
AU6952   AU        0.559412    0.735882    0.353529     0.007504
PD6953   PD        0.588824    0.706471    0.353529     0.005394
PD6954   PD        0.588824    0.735882    0.382941     0.005394
AU6955   AU        0.618235    0.706471    0.382941     0.007504
AU6956   AU        0.618235    0.735882    0.353529     0.007504
PD6957   PD        0.647647    0.706471    0.353529     0.005394
PD6958   PD        0.647647    0.735882    0.382941     0.005394
PD6959   PD        0.677059    0.706471    0.382941     0.005394
PD6960   PD        0.677059    0.735882    0.353529     0.005394
PD6961   PD        0.706471    0.706471    0.353529     0.005394
PD6999   PD        0.324118    0.765294    0.382941     0.005394
PD7001   PD        0.353529    0.765294    0.353529     0.005394
AU7002   AU        0.353529    0.794706    0.382941     0.007504
PD7003   PD        0.382941    0.765294    0.382941     0.005394
PD7004   PD        0.382941    0.794706    0.353529     0.005394
PD7005   PD        0.412353    0.765294    0.353529     0.005394
PD7006   PD        0.412353    0.794706    0.382941     0.005394
AU7007   AU        0.441765    0.765294    0.382941     0.007504
PD7008   PD        0.441765    0.794706    0.353529     0.005394
PD7009   PD        0.471176    0.765294    0.353529     0.005394
PD7010   PD        0.471176    0.794706    0.382941     0.005394
PD7011   PD        0.500588    0.765294    0.382941     0.005394
PD7012   PD        0.500588    0.794706    0.353529     0.005394
PD7013   PD        0.530000    0.765294    0.353529     0.005394
PD7014   PD        0.530000    0.794706    0.382941     0.005394
PD7015   PD        0.559412    0.765294    0.382941     0.005394
PD7016   PD        0.559412    0.794706    0.353529     0.005394
PD7017   PD        0.588824    0.765294    0.353529     0.005394
PD7018   PD        0.588824    0.794706    0.382941     0.005394
AU7019   AU        0.618235    0.765294    0.382941     0.007504
PD7320   PD        0.324118    0.147647    0.412353     0.005394
AU7322   AU        0.353529    0.147647    0.441765     0.007504
AU7324   AU        0.382941    0.147647    0.412353     0.007504
PD7326   PD        0.412353    0.147647    0.441765     0.005394
AU7327   AU        0.441765    0.118235    0.441765     0.007504
AU7328   AU        0.441765    0.147647    0.412353     0.007504
PD7329   PD        0.471176    0.118235    0.412353     0.005394
AU7330   AU        0.471176    0.147647    0.441765     0.007504
AU7331   AU        0.500588    0.118235    0.441765     0.007504
AU7332   AU        0.500588    0.147647    0.412353     0.007504
AU7334   AU        0.530000    0.147647    0.441765     0.007504
PD7336   PD        0.559412    0.147647    0.412353     0.005394
PD7338   PD        0.588824    0.147647    0.441765     0.005394
PD7340   PD        0.618235    0.147647    0.412353     0.005394
AU7378   AU        0.235882    0.206471    0.441765     0.007504
AU7379   AU        0.265294    0.177059    0.441765     0.007504
AU7380   AU        0.265294    0.206471    0.412353     0.007504
AU7381   AU        0.294706    0.177059    0.412353     0.007504
AU7382   AU        0.294706    0.206471    0.441765     0.007504
PD7383   PD        0.324118    0.177059    0.441765     0.005394
AU7384   AU        0.324118    0.206471    0.412353     0.007504
AU7385   AU        0.353529    0.177059    0.412353     0.007504
PD7386   PD        0.353529    0.206471    0.441765     0.005394
AU7387   AU        0.382941    0.177059    0.441765     0.007504
PD7388   PD        0.382941    0.206471    0.412353     0.005394
AU7389   AU        0.412353    0.177059    0.412353     0.007504
PD7390   PD        0.412353    0.206471    0.441765     0.005394
AU7391   AU        0.441765    0.177059    0.441765     0.007504
PD7392   PD        0.441765    0.206471    0.412353     0.005394
PD7393   PD        0.471176    0.177059    0.412353     0.005394
PD7394   PD        0.471176    0.206471    0.441765     0.005394
AU7395   AU        0.500588    0.177059    0.441765     0.007504
AU7396   AU        0.500588    0.206471    0.412353     0.007504
PD7397   PD        0.530000    0.177059    0.412353     0.005394
AU7398   AU        0.530000    0.206471    0.441765     0.007504
AU7399   AU        0.559412    0.177059    0.441765     0.007504
PD7400   PD        0.559412    0.206471    0.412353     0.005394
PD7401   PD        0.588824    0.177059    0.412353     0.005394
PD7402   PD        0.588824    0.206471    0.441765     0.005394
PD7403   PD        0.618235    0.177059    0.441765     0.005394
AU7404   AU        0.618235    0.206471    0.412353     0.007504
PD7405   PD        0.647647    0.177059    0.412353     0.005394
PD7406   PD        0.647647    0.206471    0.441765     0.005394
PD7407   PD        0.677059    0.177059    0.441765     0.005394
PD7408   PD        0.677059    0.206471    0.412353     0.005394
AU7410   AU        0.706471    0.206471    0.441765     0.007504
PD7438   PD        0.177059    0.265294    0.441765     0.005394
PD7439   PD        0.206471    0.235882    0.441765     0.005394
AU7440   AU        0.206471    0.265294    0.412353     0.007504
PD7441   PD        0.235882    0.235882    0.412353     0.005394
PD7442   PD        0.235882    0.265294    0.441765     0.005394
PD7443   PD        0.265294    0.235882    0.441765     0.005394
PD7444   PD        0.265294    0.265294    0.412353     0.005394
AU7445   AU        0.294706    0.235882    0.412353     0.007504
PD7446   PD        0.294706    0.265294    0.441765     0.005394
PD7447   PD        0.324118    0.235882    0.441765     0.005394
PD7448   PD        0.324118    0.265294    0.412353     0.005394
PD7449   PD        0.353529    0.235882    0.412353     0.005394
PD7450   PD        0.353529    0.265294    0.441765     0.005394
PD7451   PD        0.382941    0.235882    0.441765     0.005394
PD7452   PD        0.382941    0.265294    0.412353     0.005394
AU7453   AU        0.412353    0.235882    0.412353     0.007504
AU7454   AU        0.412353    0.265294    0.441765     0.007504
PD7455   PD        0.441765    0.235882    0.441765     0.005394
PD7456   PD        0.441765    0.265294    0.412353     0.005394
AU7457   AU        0.471176    0.235882    0.412353     0.007504
PD7458   PD        0.471176    0.265294    0.441765     0.005394
PD7459   PD        0.500588    0.235882    0.441765     0.005394
AU7460   AU        0.500588    0.265294    0.412353     0.007504
PD7461   PD        0.530000    0.235882    0.412353     0.005394
PD7462   PD        0.530000    0.265294    0.441765     0.005394
PD7463   PD        0.559412    0.235882    0.441765     0.005394
AU7464   AU        0.559412    0.265294    0.412353     0.007504
PD7465   PD        0.588824    0.235882    0.412353     0.005394
PD7466   PD        0.588824    0.265294    0.441765     0.005394
PD7467   PD        0.618235    0.235882    0.441765     0.005394
AU7468   AU        0.618235    0.265294    0.412353     0.007504
PD7469   PD        0.647647    0.235882    0.412353     0.005394
AU7470   AU        0.647647    0.265294    0.441765     0.007504
PD7471   PD        0.677059    0.235882    0.441765     0.005394
PD7472   PD        0.677059    0.265294    0.412353     0.005394
AU7473   AU        0.706471    0.235882    0.412353     0.007504
AU7474   AU        0.706471    0.265294    0.441765     0.007504
AU7475   AU        0.735882    0.235882    0.441765     0.007504
PD7476   PD        0.735882    0.265294    0.412353     0.005394
PD7478   PD        0.765294    0.265294    0.441765     0.005394
AU7500   AU        0.147647    0.324118    0.412353     0.007504
PD7501   PD        0.177059    0.294706    0.412353     0.005394
PD7502   PD        0.177059    0.324118    0.441765     0.005394
AU7503   AU        0.206471    0.294706    0.441765     0.007504
PD7504   PD        0.206471    0.324118    0.412353     0.005394
PD7505   PD        0.235882    0.294706    0.412353     0.005394
AU7506   AU        0.235882    0.324118    0.441765     0.007504
AU7507   AU        0.265294    0.294706    0.441765     0.007504
AU7508   AU        0.265294    0.324118    0.412353     0.007504
PD7509   PD        0.294706    0.294706    0.412353     0.005394
PD7510   PD        0.294706    0.324118    0.441765     0.005394
AU7511   AU        0.324118    0.294706    0.441765     0.007504
AU7512   AU        0.324118    0.324118    0.412353     0.007504
AU7513   AU        0.353529    0.294706    0.412353     0.007504
AU7514   AU        0.353529    0.324118    0.441765     0.007504
AU7515   AU        0.382941    0.294706    0.441765     0.007504
PD7516   PD        0.382941    0.324118    0.412353     0.005394
AU7517   AU        0.412353    0.294706    0.412353     0.007504
AU7518   AU        0.412353    0.324118    0.441765     0.007504
AU7519   AU        0.441765    0.294706    0.441765     0.007504
PD7520   PD        0.441765    0.324118    0.412353     0.005394
PD7521   PD        0.471176    0.294706    0.412353     0.005394
PD7522   PD        0.471176    0.324118    0.441765     0.005394
PD7523   PD        0.500588    0.294706    0.441765     0.005394
PD7524   PD        0.500588    0.324118    0.412353     0.005394
AU7525   AU        0.530000    0.294706    0.412353     0.007504
AU7526   AU        0.530000    0.324118    0.441765     0.007504
AU7527   AU        0.559412    0.294706    0.441765     0.007504
PD7528   PD        0.559412    0.324118    0.412353     0.005394
AU7529   AU        0.588824    0.294706    0.412353     0.007504
PD7530   PD        0.588824    0.324118    0.441765     0.005394
AU7531   AU        0.618235    0.294706    0.441765     0.007504
PD7532   PD        0.618235    0.324118    0.412353     0.005394
AU7533   AU        0.647647    0.294706    0.412353     0.007504
AU7534   AU        0.647647    0.324118    0.441765     0.007504
PD7535   PD        0.677059    0.294706    0.441765     0.005394
AU7536   AU        0.677059    0.324118    0.412353     0.007504
PD7537   PD        0.706471    0.294706    0.412353     0.005394
PD7538   PD        0.706471    0.324118    0.441765     0.005394
AU7539   AU        0.735882    0.294706    0.441765     0.007504
PD7540   PD        0.735882    0.324118    0.412353     0.005394
PD7541   PD        0.765294    0.294706    0.412353     0.005394
AU7542   AU        0.765294    0.324118    0.441765     0.007504
PD7544   PD        0.794706    0.324118    0.412353     0.005394
PD7563   PD        0.147647    0.353529    0.441765     0.005394
AU7564   AU        0.147647    0.382941    0.412353     0.007504
PD7565   PD        0.177059    0.353529    0.412353     0.005394
PD7566   PD        0.177059    0.382941    0.441765     0.005394
AU7567   AU        0.206471    0.353529    0.441765     0.007504
PD7568   PD        0.206471    0.382941    0.412353     0.005394
AU7569   AU        0.235882    0.353529    0.412353     0.007504
AU7570   AU        0.235882    0.382941    0.441765     0.007504
AU7571   AU        0.265294    0.353529    0.441765     0.007504
PD7572   PD        0.265294    0.382941    0.412353     0.005394
AU7573   AU        0.294706    0.353529    0.412353     0.007504
PD7574   PD        0.294706    0.382941    0.441765     0.005394
PD7575   PD        0.324118    0.353529    0.441765     0.005394
PD7576   PD        0.324118    0.382941    0.412353     0.005394
AU7577   AU        0.353529    0.353529    0.412353     0.007504
PD7578   PD        0.353529    0.382941    0.441765     0.005394
AU7579   AU        0.382941    0.353529    0.441765     0.007504
AU7580   AU        0.382941    0.382941    0.412353     0.007504
AU7581   AU        0.412353    0.353529    0.412353     0.007504
AU7582   AU        0.412353    0.382941    0.441765     0.007504
AU7583   AU        0.441765    0.353529    0.441765     0.007504
AU7584   AU        0.441765    0.382941    0.412353     0.007504
AU7585   AU        0.471176    0.353529    0.412353     0.007504
AU7586   AU        0.471176    0.382941    0.441765     0.007504
AU7587   AU        0.500588    0.353529    0.441765     0.007504
AU7588   AU        0.500588    0.382941    0.412353     0.007504
PD7589   PD        0.530000    0.353529    0.412353     0.005394
AU7590   AU        0.530000    0.382941    0.441765     0.007504
AU7591   AU        0.559412    0.353529    0.441765     0.007504
AU7592   AU        0.559412    0.382941    0.412353     0.007504
PD7593   PD        0.588824    0.353529    0.412353     0.005394
PD7594   PD        0.588824    0.382941    0.441765     0.005394
AU7595   AU        0.618235    0.353529    0.441765     0.007504
PD7596   PD        0.618235    0.382941    0.412353     0.005394
PD7597   PD        0.647647    0.353529    0.412353     0.005394
AU7598   AU        0.647647    0.382941    0.441765     0.007504
AU7599   AU        0.677059    0.353529    0.441765     0.007504
AU7600   AU        0.677059    0.382941    0.412353     0.007504
PD7601   PD        0.706471    0.353529    0.412353     0.005394
PD7602   PD        0.706471    0.382941    0.441765     0.005394
PD7603   PD        0.735882    0.353529    0.441765     0.005394
PD7604   PD        0.735882    0.382941    0.412353     0.005394
PD7605   PD        0.765294    0.353529    0.412353     0.005394
AU7606   AU        0.765294    0.382941    0.441765     0.007504
AU7607   AU        0.794706    0.353529    0.441765     0.007504
PD7608   PD        0.794706    0.382941    0.412353     0.005394
PD7626   PD        0.118235    0.441765    0.441765     0.005394
AU7627   AU        0.147647    0.412353    0.441765     0.007504
AU7628   AU        0.147647    0.441765    0.412353     0.007504
PD7629   PD        0.177059    0.412353    0.412353     0.005394
PD7630   PD        0.177059    0.441765    0.441765     0.005394
PD7631   PD        0.206471    0.412353    0.441765     0.005394
PD7632   PD        0.206471    0.441765    0.412353     0.005394
AU7633   AU        0.235882    0.412353    0.412353     0.007504
PD7634   PD        0.235882    0.441765    0.441765     0.005394
AU7635   AU        0.265294    0.412353    0.441765     0.007504
AU7636   AU        0.265294    0.441765    0.412353     0.007504
AU7637   AU        0.294706    0.412353    0.412353     0.007504
AU7638   AU        0.294706    0.441765    0.441765     0.007504
PD7639   PD        0.324118    0.412353    0.441765     0.005394
AU7640   AU        0.324118    0.441765    0.412353     0.007504
AU7641   AU        0.353529    0.412353    0.412353     0.007504
AU7642   AU        0.353529    0.441765    0.441765     0.007504
AU7643   AU        0.382941    0.412353    0.441765     0.007504
AU7644   AU        0.382941    0.441765    0.412353     0.007504
AU7645   AU        0.412353    0.412353    0.412353     0.007504
PD7646   PD        0.412353    0.441765    0.441765     0.005394
AU7647   AU        0.441765    0.412353    0.441765     0.007504
PD7648   PD        0.441765    0.441765    0.412353     0.005394
AU7649   AU        0.471176    0.412353    0.412353     0.007504
AU7650   AU        0.471176    0.441765    0.441765     0.007504
PD7651   PD        0.500588    0.412353    0.441765     0.005394
AU7652   AU        0.500588    0.441765    0.412353     0.007504
AU7653   AU        0.530000    0.412353    0.412353     0.007504
PD7654   PD        0.530000    0.441765    0.441765     0.005394
AU7655   AU        0.559412    0.412353    0.441765     0.007504
AU7656   AU        0.559412    0.441765    0.412353     0.007504
PD7657   PD        0.588824    0.412353    0.412353     0.005394
PD7658   PD        0.588824    0.441765    0.441765     0.005394
PD7659   PD        0.618235    0.412353    0.441765     0.005394
AU7660   AU        0.618235    0.441765    0.412353     0.007504
PD7661   PD        0.647647    0.412353    0.412353     0.005394
AU7662   AU        0.647647    0.441765    0.441765     0.007504
PD7663   PD        0.677059    0.412353    0.441765     0.005394
PD7664   PD        0.677059    0.441765    0.412353     0.005394
PD7665   PD        0.706471    0.412353    0.412353     0.005394
AU7666   AU        0.706471    0.441765    0.441765     0.007504
AU7667   AU        0.735882    0.412353    0.441765     0.007504
PD7668   PD        0.735882    0.441765    0.412353     0.005394
PD7669   PD        0.765294    0.412353    0.412353     0.005394
AU7670   AU        0.765294    0.441765    0.441765     0.007504
PD7671   PD        0.794706    0.412353    0.441765     0.005394
PD7672   PD        0.794706    0.441765    0.412353     0.005394
PD7674   PD        0.824118    0.441765    0.441765     0.005394
AU7689   AU        0.118235    0.471176    0.412353     0.007504
PD7690   PD        0.118235    0.500588    0.441765     0.005394
PD7691   PD        0.147647    0.471176    0.441765     0.005394
PD7692   PD        0.147647    0.500588    0.412353     0.005394
AU7693   AU        0.177059    0.471176    0.412353     0.007504
AU7694   AU        0.177059    0.500588    0.441765     0.007504
AU7695   AU        0.206471    0.471176    0.441765     0.007504
PD7696   PD        0.206471    0.500588    0.412353     0.005394
AU7697   AU        0.235882    0.471176    0.412353     0.007504
AU7698   AU        0.235882    0.500588    0.441765     0.007504
AU7699   AU        0.265294    0.471176    0.441765     0.007504
AU7700   AU        0.265294    0.500588    0.412353     0.007504
AU7701   AU        0.294706    0.471176    0.412353     0.007504
PD7702   PD        0.294706    0.500588    0.441765     0.005394
AU7703   AU        0.324118    0.471176    0.441765     0.007504
PD7704   PD        0.324118    0.500588    0.412353     0.005394
AU7705   AU        0.353529    0.471176    0.412353     0.007504
AU7706   AU        0.353529    0.500588    0.441765     0.007504
AU7707   AU        0.382941    0.471176    0.441765     0.007504
AU7708   AU        0.382941    0.500588    0.412353     0.007504
AU7709   AU        0.412353    0.471176    0.412353     0.007504
PD7710   PD        0.412353    0.500588    0.441765     0.005394
AU7711   AU        0.441765    0.471176    0.441765     0.007504
AU7712   AU        0.441765    0.500588    0.412353     0.007504
AU7713   AU        0.471176    0.471176    0.412353     0.007504
AU7714   AU        0.471176    0.500588    0.441765     0.007504
AU7715   AU        0.500588    0.471176    0.441765     0.007504
AU7716   AU        0.500588    0.500588    0.412353     0.007504
AU7717   AU        0.530000    0.471176    0.412353     0.007504
AU7718   AU        0.530000    0.500588    0.441765     0.007504
AU7719   AU        0.559412    0.471176    0.441765     0.007504
PD7720   PD        0.559412    0.500588    0.412353     0.005394
PD7721   PD        0.588824    0.471176    0.412353     0.005394
AU7722   AU        0.588824    0.500588    0.441765     0.007504
AU7723   AU        0.618235    0.471176    0.441765     0.007504
PD7724   PD        0.618235    0.500588    0.412353     0.005394
AU7725   AU        0.647647    0.471176    0.412353     0.007504
PD7726   PD        0.647647    0.500588    0.441765     0.005394
PD7727   PD        0.677059    0.471176    0.441765     0.005394
PD7728   PD        0.677059    0.500588    0.412353     0.005394
AU7729   AU        0.706471    0.471176    0.412353     0.007504
PD7730   PD        0.706471    0.500588    0.441765     0.005394
AU7731   AU        0.735882    0.471176    0.441765     0.007504
PD7732   PD        0.735882    0.500588    0.412353     0.005394
AU7733   AU        0.765294    0.471176    0.412353     0.007504
AU7734   AU        0.765294    0.500588    0.441765     0.007504
AU7735   AU        0.794706    0.471176    0.441765     0.007504
AU7736   AU        0.794706    0.500588    0.412353     0.007504
PD7737   PD        0.824118    0.471176    0.412353     0.005394
PD7738   PD        0.824118    0.500588    0.441765     0.005394
AU7755   AU        0.147647    0.530000    0.441765     0.007504
PD7756   PD        0.147647    0.559412    0.412353     0.005394
PD7757   PD        0.177059    0.530000    0.412353     0.005394
PD7758   PD        0.177059    0.559412    0.441765     0.005394
AU7759   AU        0.206471    0.530000    0.441765     0.007504
AU7760   AU        0.206471    0.559412    0.412353     0.007504
PD7761   PD        0.235882    0.530000    0.412353     0.005394
AU7762   AU        0.235882    0.559412    0.441765     0.007504
AU7763   AU        0.265294    0.530000    0.441765     0.007504
PD7764   PD        0.265294    0.559412    0.412353     0.005394
AU7765   AU        0.294706    0.530000    0.412353     0.007504
AU7766   AU        0.294706    0.559412    0.441765     0.007504
AU7767   AU        0.324118    0.530000    0.441765     0.007504
PD7768   PD        0.324118    0.559412    0.412353     0.005394
AU7769   AU        0.353529    0.530000    0.412353     0.007504
AU7770   AU        0.353529    0.559412    0.441765     0.007504
PD7771   PD        0.382941    0.530000    0.441765     0.005394
AU7772   AU        0.382941    0.559412    0.412353     0.007504
AU7773   AU        0.412353    0.530000    0.412353     0.007504
AU7774   AU        0.412353    0.559412    0.441765     0.007504
AU7775   AU        0.441765    0.530000    0.441765     0.007504
AU7776   AU        0.441765    0.559412    0.412353     0.007504
PD7777   PD        0.471176    0.530000    0.412353     0.005394
AU7778   AU        0.471176    0.559412    0.441765     0.007504
AU7779   AU        0.500588    0.530000    0.441765     0.007504
AU7780   AU        0.500588    0.559412    0.412353     0.007504
AU7781   AU        0.530000    0.530000    0.412353     0.007504
AU7782   AU        0.530000    0.559412    0.441765     0.007504
AU7783   AU        0.559412    0.530000    0.441765     0.007504
AU7784   AU        0.559412    0.559412    0.412353     0.007504
AU7785   AU        0.588824    0.530000    0.412353     0.007504
PD7786   PD        0.588824    0.559412    0.441765     0.005394
PD7787   PD        0.618235    0.530000    0.441765     0.005394
AU7788   AU        0.618235    0.559412    0.412353     0.007504
AU7789   AU        0.647647    0.530000    0.412353     0.007504
PD7790   PD        0.647647    0.559412    0.441765     0.005394
AU7791   AU        0.677059    0.530000    0.441765     0.007504
PD7792   PD        0.677059    0.559412    0.412353     0.005394
AU7793   AU        0.706471    0.530000    0.412353     0.007504
AU7794   AU        0.706471    0.559412    0.441765     0.007504
AU7795   AU        0.735882    0.530000    0.441765     0.007504
PD7796   PD        0.735882    0.559412    0.412353     0.005394
AU7797   AU        0.765294    0.530000    0.412353     0.007504
PD7798   PD        0.765294    0.559412    0.441765     0.005394
AU7799   AU        0.794706    0.530000    0.441765     0.007504
AU7800   AU        0.794706    0.559412    0.412353     0.007504
AU7819   AU        0.147647    0.588824    0.441765     0.007504
PD7820   PD        0.147647    0.618235    0.412353     0.005394
PD7821   PD        0.177059    0.588824    0.412353     0.005394
PD7822   PD        0.177059    0.618235    0.441765     0.005394
AU7823   AU        0.206471    0.588824    0.441765     0.007504
PD7824   PD        0.206471    0.618235    0.412353     0.005394
PD7825   PD        0.235882    0.588824    0.412353     0.005394
AU7826   AU        0.235882    0.618235    0.441765     0.007504
AU7827   AU        0.265294    0.588824    0.441765     0.007504
AU7828   AU        0.265294    0.618235    0.412353     0.007504
PD7829   PD        0.294706    0.588824    0.412353     0.005394
AU7830   AU        0.294706    0.618235    0.441765     0.007504
AU7831   AU        0.324118    0.588824    0.441765     0.007504
PD7832   PD        0.324118    0.618235    0.412353     0.005394
AU7833   AU        0.353529    0.588824    0.412353     0.007504
AU7834   AU        0.353529    0.618235    0.441765     0.007504
AU7835   AU        0.382941    0.588824    0.441765     0.007504
AU7836   AU        0.382941    0.618235    0.412353     0.007504
AU7837   AU        0.412353    0.588824    0.412353     0.007504
AU7838   AU        0.412353    0.618235    0.441765     0.007504
AU7839   AU        0.441765    0.588824    0.441765     0.007504
AU7840   AU        0.441765    0.618235    0.412353     0.007504
AU7841   AU        0.471176    0.588824    0.412353     0.007504
AU7842   AU        0.471176    0.618235    0.441765     0.007504
PD7843   PD        0.500588    0.588824    0.441765     0.005394
AU7844   AU        0.500588    0.618235    0.412353     0.007504
AU7845   AU        0.530000    0.588824    0.412353     0.007504
AU7846   AU        0.530000    0.618235    0.441765     0.007504
AU7847   AU        0.559412    0.588824    0.441765     0.007504
AU7848   AU        0.559412    0.618235    0.412353     0.007504
AU7849   AU        0.588824    0.588824    0.412353     0.007504
AU7850   AU        0.588824    0.618235    0.441765     0.007504
AU7851   AU        0.618235    0.588824    0.441765     0.007504
AU7852   AU        0.618235    0.618235    0.412353     0.007504
AU7853   AU        0.647647    0.588824    0.412353     0.007504
PD7854   PD        0.647647    0.618235    0.441765     0.005394
AU7855   AU        0.677059    0.588824    0.441765     0.007504
AU7856   AU        0.677059    0.618235    0.412353     0.007504
AU7857   AU        0.706471    0.588824    0.412353     0.007504
PD7858   PD        0.706471    0.618235    0.441765     0.005394
PD7859   PD        0.735882    0.588824    0.441765     0.005394
PD7860   PD        0.735882    0.618235    0.412353     0.005394
PD7861   PD        0.765294    0.588824    0.412353     0.005394
AU7862   AU        0.765294    0.618235    0.441765     0.007504
AU7863   AU        0.794706    0.588824    0.441765     0.007504
PD7864   PD        0.794706    0.618235    0.412353     0.005394
PD7885   PD        0.177059    0.647647    0.412353     0.005394
AU7886   AU        0.177059    0.677059    0.441765     0.007504
AU7887   AU        0.206471    0.647647    0.441765     0.007504
AU7888   AU        0.206471    0.677059    0.412353     0.007504
PD7889   PD        0.235882    0.647647    0.412353     0.005394
PD7890   PD        0.235882    0.677059    0.441765     0.005394
PD7891   PD        0.265294    0.647647    0.441765     0.005394
PD7892   PD        0.265294    0.677059    0.412353     0.005394
AU7893   AU        0.294706    0.647647    0.412353     0.007504
PD7894   PD        0.294706    0.677059    0.441765     0.005394
PD7895   PD        0.324118    0.647647    0.441765     0.005394
PD7896   PD        0.324118    0.677059    0.412353     0.005394
PD7897   PD        0.353529    0.647647    0.412353     0.005394
AU7898   AU        0.353529    0.677059    0.441765     0.007504
AU7899   AU        0.382941    0.647647    0.441765     0.007504
PD7900   PD        0.382941    0.677059    0.412353     0.005394
AU7901   AU        0.412353    0.647647    0.412353     0.007504
PD7902   PD        0.412353    0.677059    0.441765     0.005394
PD7903   PD        0.441765    0.647647    0.441765     0.005394
AU7904   AU        0.441765    0.677059    0.412353     0.007504
PD7905   PD        0.471176    0.647647    0.412353     0.005394
AU7906   AU        0.471176    0.677059    0.441765     0.007504
PD7907   PD        0.500588    0.647647    0.441765     0.005394
PD7908   PD        0.500588    0.677059    0.412353     0.005394
PD7909   PD        0.530000    0.647647    0.412353     0.005394
AU7910   AU        0.530000    0.677059    0.441765     0.007504
PD7911   PD        0.559412    0.647647    0.441765     0.005394
PD7912   PD        0.559412    0.677059    0.412353     0.005394
AU7913   AU        0.588824    0.647647    0.412353     0.007504
PD7914   PD        0.588824    0.677059    0.441765     0.005394
PD7915   PD        0.618235    0.647647    0.441765     0.005394
AU7916   AU        0.618235    0.677059    0.412353     0.007504
AU7917   AU        0.647647    0.647647    0.412353     0.007504
PD7918   PD        0.647647    0.677059    0.441765     0.005394
AU7919   AU        0.677059    0.647647    0.441765     0.007504
PD7920   PD        0.677059    0.677059    0.412353     0.005394
AU7921   AU        0.706471    0.647647    0.412353     0.007504
PD7922   PD        0.706471    0.677059    0.441765     0.005394
PD7923   PD        0.735882    0.647647    0.441765     0.005394
PD7924   PD        0.735882    0.677059    0.412353     0.005394
PD7925   PD        0.765294    0.647647    0.412353     0.005394
PD7926   PD        0.765294    0.677059    0.441765     0.005394
PD7951   PD        0.206471    0.706471    0.441765     0.005394
PD7953   PD        0.235882    0.706471    0.412353     0.005394
AU7954   AU        0.235882    0.735882    0.441765     0.007504
PD7955   PD        0.265294    0.706471    0.441765     0.005394
PD7956   PD        0.265294    0.735882    0.412353     0.005394
PD7957   PD        0.294706    0.706471    0.412353     0.005394
PD7958   PD        0.294706    0.735882    0.441765     0.005394
AU7959   AU        0.324118    0.706471    0.441765     0.007504
AU7960   AU        0.324118    0.735882    0.412353     0.007504
PD7961   PD        0.353529    0.706471    0.412353     0.005394
AU7962   AU        0.353529    0.735882    0.441765     0.007504
AU7963   AU        0.382941    0.706471    0.441765     0.007504
PD7964   PD        0.382941    0.735882    0.412353     0.005394
PD7965   PD        0.412353    0.706471    0.412353     0.005394
AU7966   AU        0.412353    0.735882    0.441765     0.007504
AU7967   AU        0.441765    0.706471    0.441765     0.007504
PD7968   PD        0.441765    0.735882    0.412353     0.005394
PD7969   PD        0.471176    0.706471    0.412353     0.005394
PD7970   PD        0.471176    0.735882    0.441765     0.005394
PD7971   PD        0.500588    0.706471    0.441765     0.005394
PD7972   PD        0.500588    0.735882    0.412353     0.005394
AU7973   AU        0.530000    0.706471    0.412353     0.007504
AU7974   AU        0.530000    0.735882    0.441765     0.007504
AU7975   AU        0.559412    0.706471    0.441765     0.007504
PD7976   PD        0.559412    0.735882    0.412353     0.005394
PD7977   PD        0.588824    0.706471    0.412353     0.005394
PD7978   PD        0.588824    0.735882    0.441765     0.005394
AU7979   AU        0.618235    0.706471    0.441765     0.007504
PD7980   PD        0.618235    0.735882    0.412353     0.005394
AU7981   AU        0.647647    0.706471    0.412353     0.007504
PD7982   PD        0.647647    0.735882    0.441765     0.005394
PD7983   PD        0.677059    0.706471    0.441765     0.005394
AU7984   AU        0.677059    0.735882    0.412353     0.007504
AU7985   AU        0.706471    0.706471    0.412353     0.007504
PD7986   PD        0.706471    0.735882    0.441765     0.005394
PD7987   PD        0.735882    0.706471    0.441765     0.005394
AU8019   AU        0.265294    0.765294    0.441765     0.007504
PD8021   PD        0.294706    0.765294    0.412353     0.005394
PD8023   PD        0.324118    0.765294    0.441765     0.005394
PD8024   PD        0.324118    0.794706    0.412353     0.005394
PD8025   PD        0.353529    0.765294    0.412353     0.005394
PD8026   PD        0.353529    0.794706    0.441765     0.005394
PD8027   PD        0.382941    0.765294    0.441765     0.005394
PD8028   PD        0.382941    0.794706    0.412353     0.005394
PD8029   PD        0.412353    0.765294    0.412353     0.005394
PD8030   PD        0.412353    0.794706    0.441765     0.005394
PD8031   PD        0.441765    0.765294    0.441765     0.005394
PD8032   PD        0.441765    0.794706    0.412353     0.005394
AU8033   AU        0.471176    0.765294    0.412353     0.007504
PD8034   PD        0.471176    0.794706    0.441765     0.005394
PD8035   PD        0.500588    0.765294    0.441765     0.005394
AU8036   AU        0.500588    0.794706    0.412353     0.007504
PD8037   PD        0.530000    0.765294    0.412353     0.005394
PD8038   PD        0.530000    0.794706    0.441765     0.005394
AU8039   AU        0.559412    0.765294    0.441765     0.007504
AU8040   AU        0.559412    0.794706    0.412353     0.007504
PD8041   PD        0.588824    0.765294    0.412353     0.005394
PD8042   PD        0.588824    0.794706    0.441765     0.005394
PD8043   PD        0.618235    0.765294    0.441765     0.005394
PD8044   PD        0.618235    0.794706    0.412353     0.005394
AU8045   AU        0.647647    0.765294    0.412353     0.007504
PD8047   PD        0.677059    0.765294    0.441765     0.005394
PD8095   PD        0.441765    0.824118    0.441765     0.005394
AU8097   AU        0.471176    0.824118    0.412353     0.007504
AU8099   AU        0.500588    0.824118    0.441765     0.007504
AU8344   AU        0.324118    0.147647    0.471176     0.007504
PD8346   PD        0.353529    0.147647    0.500588     0.005394
PD8348   PD        0.382941    0.147647    0.471176     0.005394
AU8349   AU        0.412353    0.118235    0.471176     0.007504
AU8350   AU        0.412353    0.147647    0.500588     0.007504
PD8351   PD        0.441765    0.118235    0.500588     0.005394
AU8352   AU        0.441765    0.147647    0.471176     0.007504
AU8353   AU        0.471176    0.118235    0.471176     0.007504
PD8354   PD        0.471176    0.147647    0.500588     0.005394
PD8355   PD        0.500588    0.118235    0.500588     0.005394
PD8356   PD        0.500588    0.147647    0.471176     0.005394
AU8357   AU        0.530000    0.118235    0.471176     0.007504
PD8358   PD        0.530000    0.147647    0.500588     0.005394
AU8360   AU        0.559412    0.147647    0.471176     0.007504
PD8362   PD        0.588824    0.147647    0.500588     0.005394
PD8364   PD        0.618235    0.147647    0.471176     0.005394
AU8402   AU        0.235882    0.206471    0.500588     0.007504
PD8403   PD        0.265294    0.177059    0.500588     0.005394
PD8404   PD        0.265294    0.206471    0.471176     0.005394
PD8405   PD        0.294706    0.177059    0.471176     0.005394
PD8406   PD        0.294706    0.206471    0.500588     0.005394
PD8407   PD        0.324118    0.177059    0.500588     0.005394
AU8408   AU        0.324118    0.206471    0.471176     0.007504
AU8409   AU        0.353529    0.177059    0.471176     0.007504
PD8410   PD        0.353529    0.206471    0.500588     0.005394
AU8411   AU        0.382941    0.177059    0.500588     0.007504
AU8412   AU        0.382941    0.206471    0.471176     0.007504
PD8413   PD        0.412353    0.177059    0.471176     0.005394
PD8414   PD        0.412353    0.206471    0.500588     0.005394
PD8415   PD        0.441765    0.177059    0.500588     0.005394
AU8416   AU        0.441765    0.206471    0.471176     0.007504
PD8417   PD        0.471176    0.177059    0.471176     0.005394
PD8418   PD        0.471176    0.206471    0.500588     0.005394
AU8419   AU        0.500588    0.177059    0.500588     0.007504
AU8420   AU        0.500588    0.206471    0.471176     0.007504
PD8421   PD        0.530000    0.177059    0.471176     0.005394
PD8422   PD        0.530000    0.206471    0.500588     0.005394
AU8423   AU        0.559412    0.177059    0.500588     0.007504
PD8424   PD        0.559412    0.206471    0.471176     0.005394
PD8425   PD        0.588824    0.177059    0.471176     0.005394
AU8426   AU        0.588824    0.206471    0.500588     0.007504
PD8427   PD        0.618235    0.177059    0.500588     0.005394
AU8428   AU        0.618235    0.206471    0.471176     0.007504
PD8429   PD        0.647647    0.177059    0.471176     0.005394
PD8430   PD        0.647647    0.206471    0.500588     0.005394
AU8431   AU        0.677059    0.177059    0.500588     0.007504
PD8432   PD        0.677059    0.206471    0.471176     0.005394
PD8434   PD        0.706471    0.206471    0.500588     0.005394
PD8462   PD        0.177059    0.265294    0.500588     0.005394
PD8463   PD        0.206471    0.235882    0.500588     0.005394
PD8464   PD        0.206471    0.265294    0.471176     0.005394
PD8465   PD        0.235882    0.235882    0.471176     0.005394
AU8466   AU        0.235882    0.265294    0.500588     0.007504
PD8467   PD        0.265294    0.235882    0.500588     0.005394
AU8468   AU        0.265294    0.265294    0.471176     0.007504
PD8469   PD        0.294706    0.235882    0.471176     0.005394
AU8470   AU        0.294706    0.265294    0.500588     0.007504
PD8471   PD        0.324118    0.235882    0.500588     0.005394
PD8472   PD        0.324118    0.265294    0.471176     0.005394
PD8473   PD        0.353529    0.235882    0.471176     0.005394
PD8474   PD        0.353529    0.265294    0.500588     0.005394
PD8475   PD        0.382941    0.235882    0.500588     0.005394
AU8476   AU        0.382941    0.265294    0.471176     0.007504
AU8477   AU        0.412353    0.235882    0.471176     0.007504
AU8478   AU        0.412353    0.265294    0.500588     0.007504
PD8479   PD        0.441765    0.235882    0.500588     0.005394
AU8480   AU        0.441765    0.265294    0.471176     0.007504
AU8481   AU        0.471176    0.235882    0.471176     0.007504
AU8482   AU        0.471176    0.265294    0.500588     0.007504
PD8483   PD        0.500588    0.235882    0.500588     0.005394
PD8484   PD        0.500588    0.265294    0.471176     0.005394
PD8485   PD        0.530000    0.235882    0.471176     0.005394
PD8486   PD        0.530000    0.265294    0.500588     0.005394
PD8487   PD        0.559412    0.235882    0.500588     0.005394
AU8488   AU        0.559412    0.265294    0.471176     0.007504
AU8489   AU        0.588824    0.235882    0.471176     0.007504
AU8490   AU        0.588824    0.265294    0.500588     0.007504
PD8491   PD        0.618235    0.235882    0.500588     0.005394
PD8492   PD        0.618235    0.265294    0.471176     0.005394
AU8493   AU        0.647647    0.235882    0.471176     0.007504
PD8494   PD        0.647647    0.265294    0.500588     0.005394
AU8495   AU        0.677059    0.235882    0.500588     0.007504
AU8496   AU        0.677059    0.265294    0.471176     0.007504
PD8497   PD        0.706471    0.235882    0.471176     0.005394
AU8498   AU        0.706471    0.265294    0.500588     0.007504
PD8499   PD        0.735882    0.235882    0.500588     0.005394
PD8500   PD        0.735882    0.265294    0.471176     0.005394
AU8502   AU        0.765294    0.265294    0.500588     0.007504
AU8524   AU        0.147647    0.324118    0.471176     0.007504
AU8525   AU        0.177059    0.294706    0.471176     0.007504
PD8526   PD        0.177059    0.324118    0.500588     0.005394
AU8527   AU        0.206471    0.294706    0.500588     0.007504
PD8528   PD        0.206471    0.324118    0.471176     0.005394
PD8529   PD        0.235882    0.294706    0.471176     0.005394
PD8530   PD        0.235882    0.324118    0.500588     0.005394
PD8531   PD        0.265294    0.294706    0.500588     0.005394
PD8532   PD        0.265294    0.324118    0.471176     0.005394
PD8533   PD        0.294706    0.294706    0.471176     0.005394
AU8534   AU        0.294706    0.324118    0.500588     0.007504
AU8535   AU        0.324118    0.294706    0.500588     0.007504
AU8536   AU        0.324118    0.324118    0.471176     0.007504
PD8537   PD        0.353529    0.294706    0.471176     0.005394
PD8538   PD        0.353529    0.324118    0.500588     0.005394
AU8539   AU        0.382941    0.294706    0.500588     0.007504
AU8540   AU        0.382941    0.324118    0.471176     0.007504
PD8541   PD        0.412353    0.294706    0.471176     0.005394
AU8542   AU        0.412353    0.324118    0.500588     0.007504
PD8543   PD        0.441765    0.294706    0.500588     0.005394
AU8544   AU        0.441765    0.324118    0.471176     0.007504
AU8545   AU        0.471176    0.294706    0.471176     0.007504
AU8546   AU        0.471176    0.324118    0.500588     0.007504
AU8547   AU        0.500588    0.294706    0.500588     0.007504
AU8548   AU        0.500588    0.324118    0.471176     0.007504
PD8549   PD        0.530000    0.294706    0.471176     0.005394
AU8550   AU        0.530000    0.324118    0.500588     0.007504
AU8551   AU        0.559412    0.294706    0.500588     0.007504
AU8552   AU        0.559412    0.324118    0.471176     0.007504
AU8553   AU        0.588824    0.294706    0.471176     0.007504
PD8554   PD        0.588824    0.324118    0.500588     0.005394
PD8555   PD        0.618235    0.294706    0.500588     0.005394
PD8556   PD        0.618235    0.324118    0.471176     0.005394
AU8557   AU        0.647647    0.294706    0.471176     0.007504
PD8558   PD        0.647647    0.324118    0.500588     0.005394
AU8559   AU        0.677059    0.294706    0.500588     0.007504
AU8560   AU        0.677059    0.324118    0.471176     0.007504
AU8561   AU        0.706471    0.294706    0.471176     0.007504
AU8562   AU        0.706471    0.324118    0.500588     0.007504
AU8563   AU        0.735882    0.294706    0.500588     0.007504
PD8564   PD        0.735882    0.324118    0.471176     0.005394
PD8565   PD        0.765294    0.294706    0.471176     0.005394
AU8566   AU        0.765294    0.324118    0.500588     0.007504
PD8568   PD        0.794706    0.324118    0.471176     0.005394
AU8587   AU        0.147647    0.353529    0.500588     0.007504
PD8588   PD        0.147647    0.382941    0.471176     0.005394
PD8589   PD        0.177059    0.353529    0.471176     0.005394
AU8590   AU        0.177059    0.382941    0.500588     0.007504
AU8591   AU        0.206471    0.353529    0.500588     0.007504
AU8592   AU        0.206471    0.382941    0.471176     0.007504
AU8593   AU        0.235882    0.353529    0.471176     0.007504
PD8594   PD        0.235882    0.382941    0.500588     0.005394
PD8595   PD        0.265294    0.353529    0.500588     0.005394
PD8596   PD        0.265294    0.382941    0.471176     0.005394
AU8597   AU        0.294706    0.353529    0.471176     0.007504
AU8598   AU        0.294706    0.382941    0.500588     0.007504
AU8599   AU        0.324118    0.353529    0.500588     0.007504
AU8600   AU        0.324118    0.382941    0.471176     0.007504
PD8601   PD        0.353529    0.353529    0.471176     0.005394
PD8602   PD        0.353529    0.382941    0.500588     0.005394
AU8603   AU        0.382941    0.353529    0.500588     0.007504
AU8604   AU        0.382941    0.382941    0.471176     0.007504
PD8605   PD        0.412353    0.353529    0.471176     0.005394
AU8606   AU        0.412353    0.382941    0.500588     0.007504
PD8607   PD        0.441765    0.353529    0.500588     0.005394
PD8608   PD        0.441765    0.382941    0.471176     0.005394
AU8609   AU        0.471176    0.353529    0.471176     0.007504
AU8610   AU        0.471176    0.382941    0.500588     0.007504
PD8611   PD        0.500588    0.353529    0.500588     0.005394
PD8612   PD        0.500588    0.382941    0.471176     0.005394
AU8613   AU        0.530000    0.353529    0.471176     0.007504
AU8614   AU        0.530000    0.382941    0.500588     0.007504
AU8615   AU        0.559412    0.353529    0.500588     0.007504
AU8616   AU        0.559412    0.382941    0.471176     0.007504
AU8617   AU        0.588824    0.353529    0.471176     0.007504
AU8618   AU        0.588824    0.382941    0.500588     0.007504
PD8619   PD        0.618235    0.353529    0.500588     0.005394
PD8620   PD        0.618235    0.382941    0.471176     0.005394
AU8621   AU        0.647647    0.353529    0.471176     0.007504
PD8622   PD        0.647647    0.382941    0.500588     0.005394
PD8623   PD        0.677059    0.353529    0.500588     0.005394
PD8624   PD        0.677059    0.382941    0.471176     0.005394
AU8625   AU        0.706471    0.353529    0.471176     0.007504
PD8626   PD        0.706471    0.382941    0.500588     0.005394
PD8627   PD        0.735882    0.353529    0.500588     0.005394
AU8628   AU        0.735882    0.382941    0.471176     0.007504
AU8629   AU        0.765294    0.353529    0.471176     0.007504
PD8630   PD        0.765294    0.382941    0.500588     0.005394
PD8631   PD        0.794706    0.353529    0.500588     0.005394
PD8632   PD        0.794706    0.382941    0.471176     0.005394
AU8649   AU        0.118235    0.412353    0.471176     0.007504
AU8650   AU        0.118235    0.441765    0.500588     0.007504
AU8651   AU        0.147647    0.412353    0.500588     0.007504
AU8652   AU        0.147647    0.441765    0.471176     0.007504
PD8653   PD        0.177059    0.412353    0.471176     0.005394
PD8654   PD        0.177059    0.441765    0.500588     0.005394
AU8655   AU        0.206471    0.412353    0.500588     0.007504
PD8656   PD        0.206471    0.441765    0.471176     0.005394
PD8657   PD        0.235882    0.412353    0.471176     0.005394
PD8658   PD        0.235882    0.441765    0.500588     0.005394
AU8659   AU        0.265294    0.412353    0.500588     0.007504
AU8660   AU        0.265294    0.441765    0.471176     0.007504
AU8661   AU        0.294706    0.412353    0.471176     0.007504
PD8662   PD        0.294706    0.441765    0.500588     0.005394
AU8663   AU        0.324118    0.412353    0.500588     0.007504
PD8664   PD        0.324118    0.441765    0.471176     0.005394
PD8665   PD        0.353529    0.412353    0.471176     0.005394
AU8666   AU        0.353529    0.441765    0.500588     0.007504
AU8667   AU        0.382941    0.412353    0.500588     0.007504
AU8668   AU        0.382941    0.441765    0.471176     0.007504
AU8669   AU        0.412353    0.412353    0.471176     0.007504
AU8670   AU        0.412353    0.441765    0.500588     0.007504
AU8671   AU        0.441765    0.412353    0.500588     0.007504
AU8672   AU        0.441765    0.441765    0.471176     0.007504
AU8673   AU        0.471176    0.412353    0.471176     0.007504
AU8674   AU        0.471176    0.441765    0.500588     0.007504
AU8675   AU        0.500588    0.412353    0.500588     0.007504
AU8676   AU        0.500588    0.441765    0.471176     0.007504
AU8677   AU        0.530000    0.412353    0.471176     0.007504
AU8678   AU        0.530000    0.441765    0.500588     0.007504
AU8679   AU        0.559412    0.412353    0.500588     0.007504
AU8680   AU        0.559412    0.441765    0.471176     0.007504
AU8681   AU        0.588824    0.412353    0.471176     0.007504
AU8682   AU        0.588824    0.441765    0.500588     0.007504
PD8683   PD        0.618235    0.412353    0.500588     0.005394
AU8684   AU        0.618235    0.441765    0.471176     0.007504
AU8685   AU        0.647647    0.412353    0.471176     0.007504
AU8686   AU        0.647647    0.441765    0.500588     0.007504
PD8687   PD        0.677059    0.412353    0.500588     0.005394
AU8688   AU        0.677059    0.441765    0.471176     0.007504
AU8689   AU        0.706471    0.412353    0.471176     0.007504
AU8690   AU        0.706471    0.441765    0.500588     0.007504
AU8691   AU        0.735882    0.412353    0.500588     0.007504
AU8692   AU        0.735882    0.441765    0.471176     0.007504
AU8693   AU        0.765294    0.412353    0.471176     0.007504
PD8694   PD        0.765294    0.441765    0.500588     0.005394
PD8695   PD        0.794706    0.412353    0.500588     0.005394
PD8696   PD        0.794706    0.441765    0.471176     0.005394
PD8697   PD        0.824118    0.412353    0.471176     0.005394
PD8698   PD        0.824118    0.441765    0.500588     0.005394
PD8713   PD        0.118235    0.471176    0.471176     0.005394
PD8714   PD        0.118235    0.500588    0.500588     0.005394
AU8715   AU        0.147647    0.471176    0.500588     0.007504
PD8716   PD        0.147647    0.500588    0.471176     0.005394
PD8717   PD        0.177059    0.471176    0.471176     0.005394
PD8718   PD        0.177059    0.500588    0.500588     0.005394
AU8719   AU        0.206471    0.471176    0.500588     0.007504
PD8720   PD        0.206471    0.500588    0.471176     0.005394
PD8721   PD        0.235882    0.471176    0.471176     0.005394
AU8722   AU        0.235882    0.500588    0.500588     0.007504
PD8723   PD        0.265294    0.471176    0.500588     0.005394
PD8724   PD        0.265294    0.500588    0.471176     0.005394
PD8725   PD        0.294706    0.471176    0.471176     0.005394
AU8726   AU        0.294706    0.500588    0.500588     0.007504
AU8727   AU        0.324118    0.471176    0.500588     0.007504
PD8728   PD        0.324118    0.500588    0.471176     0.005394
AU8729   AU        0.353529    0.471176    0.471176     0.007504
AU8730   AU        0.353529    0.500588    0.500588     0.007504
AU8731   AU        0.382941    0.471176    0.500588     0.007504
PD8732   PD        0.382941    0.500588    0.471176     0.005394
AU8733   AU        0.412353    0.471176    0.471176     0.007504
PD8734   PD        0.412353    0.500588    0.500588     0.005394
AU8735   AU        0.441765    0.471176    0.500588     0.007504
AU8736   AU        0.441765    0.500588    0.471176     0.007504
AU8737   AU        0.471176    0.471176    0.471176     0.007504
AU8738   AU        0.471176    0.500588    0.500588     0.007504
AU8739   AU        0.500588    0.471176    0.500588     0.007504
AU8740   AU        0.500588    0.500588    0.471176     0.007504
AU8741   AU        0.530000    0.471176    0.471176     0.007504
AU8742   AU        0.530000    0.500588    0.500588     0.007504
AU8743   AU        0.559412    0.471176    0.500588     0.007504
AU8744   AU        0.559412    0.500588    0.471176     0.007504
AU8745   AU        0.588824    0.471176    0.471176     0.007504
AU8746   AU        0.588824    0.500588    0.500588     0.007504
AU8747   AU        0.618235    0.471176    0.500588     0.007504
AU8748   AU        0.618235    0.500588    0.471176     0.007504
PD8749   PD        0.647647    0.471176    0.471176     0.005394
PD8750   PD        0.647647    0.500588    0.500588     0.005394
AU8751   AU        0.677059    0.471176    0.500588     0.007504
AU8752   AU        0.677059    0.500588    0.471176     0.007504
PD8753   PD        0.706471    0.471176    0.471176     0.005394
PD8754   PD        0.706471    0.500588    0.500588     0.005394
PD8755   PD        0.735882    0.471176    0.500588     0.005394
AU8756   AU        0.735882    0.500588    0.471176     0.007504
PD8757   PD        0.765294    0.471176    0.471176     0.005394
PD8758   PD        0.765294    0.500588    0.500588     0.005394
PD8759   PD        0.794706    0.471176    0.500588     0.005394
AU8760   AU        0.794706    0.500588    0.471176     0.007504
PD8761   PD        0.824118    0.471176    0.471176     0.005394
PD8762   PD        0.824118    0.500588    0.500588     0.005394
AU8777   AU        0.118235    0.530000    0.471176     0.007504
AU8779   AU        0.147647    0.530000    0.500588     0.007504
AU8780   AU        0.147647    0.559412    0.471176     0.007504
AU8781   AU        0.177059    0.530000    0.471176     0.007504
AU8782   AU        0.177059    0.559412    0.500588     0.007504
AU8783   AU        0.206471    0.530000    0.500588     0.007504
AU8784   AU        0.206471    0.559412    0.471176     0.007504
AU8785   AU        0.235882    0.530000    0.471176     0.007504
PD8786   PD        0.235882    0.559412    0.500588     0.005394
AU8787   AU        0.265294    0.530000    0.500588     0.007504
AU8788   AU        0.265294    0.559412    0.471176     0.007504
PD8789   PD        0.294706    0.530000    0.471176     0.005394
PD8790   PD        0.294706    0.559412    0.500588     0.005394
AU8791   AU        0.324118    0.530000    0.500588     0.007504
AU8792   AU        0.324118    0.559412    0.471176     0.007504
PD8793   PD        0.353529    0.530000    0.471176     0.005394
PD8794   PD        0.353529    0.559412    0.500588     0.005394
AU8795   AU        0.382941    0.530000    0.500588     0.007504
AU8796   AU        0.382941    0.559412    0.471176     0.007504
AU8797   AU        0.412353    0.530000    0.471176     0.007504
AU8798   AU        0.412353    0.559412    0.500588     0.007504
AU8799   AU        0.441765    0.530000    0.500588     0.007504
AU8800   AU        0.441765    0.559412    0.471176     0.007504
AU8801   AU        0.471176    0.530000    0.471176     0.007504
AU8802   AU        0.471176    0.559412    0.500588     0.007504
AU8803   AU        0.500588    0.530000    0.500588     0.007504
AU8804   AU        0.500588    0.559412    0.471176     0.007504
AU8805   AU        0.530000    0.530000    0.471176     0.007504
PD8806   PD        0.530000    0.559412    0.500588     0.005394
PD8807   PD        0.559412    0.530000    0.500588     0.005394
AU8808   AU        0.559412    0.559412    0.471176     0.007504
PD8809   PD        0.588824    0.530000    0.471176     0.005394
AU8810   AU        0.588824    0.559412    0.500588     0.007504
AU8811   AU        0.618235    0.530000    0.500588     0.007504
AU8812   AU        0.618235    0.559412    0.471176     0.007504
AU8813   AU        0.647647    0.530000    0.471176     0.007504
AU8814   AU        0.647647    0.559412    0.500588     0.007504
AU8815   AU        0.677059    0.530000    0.500588     0.007504
PD8816   PD        0.677059    0.559412    0.471176     0.005394
PD8817   PD        0.706471    0.530000    0.471176     0.005394
AU8818   AU        0.706471    0.559412    0.500588     0.007504
AU8819   AU        0.735882    0.530000    0.500588     0.007504
AU8820   AU        0.735882    0.559412    0.471176     0.007504
PD8821   PD        0.765294    0.530000    0.471176     0.005394
PD8822   PD        0.765294    0.559412    0.500588     0.005394
PD8823   PD        0.794706    0.530000    0.500588     0.005394
PD8824   PD        0.794706    0.559412    0.471176     0.005394
PD8825   PD        0.824118    0.530000    0.471176     0.005394
PD8843   PD        0.147647    0.588824    0.500588     0.005394
PD8844   PD        0.147647    0.618235    0.471176     0.005394
PD8845   PD        0.177059    0.588824    0.471176     0.005394
AU8846   AU        0.177059    0.618235    0.500588     0.007504
AU8847   AU        0.206471    0.588824    0.500588     0.007504
PD8848   PD        0.206471    0.618235    0.471176     0.005394
AU8849   AU        0.235882    0.588824    0.471176     0.007504
PD8850   PD        0.235882    0.618235    0.500588     0.005394
PD8851   PD        0.265294    0.588824    0.500588     0.005394
PD8852   PD        0.265294    0.618235    0.471176     0.005394
AU8853   AU        0.294706    0.588824    0.471176     0.007504
AU8854   AU        0.294706    0.618235    0.500588     0.007504
AU8855   AU        0.324118    0.588824    0.500588     0.007504
PD8856   PD        0.324118    0.618235    0.471176     0.005394
AU8857   AU        0.353529    0.588824    0.471176     0.007504
AU8858   AU        0.353529    0.618235    0.500588     0.007504
PD8859   PD        0.382941    0.588824    0.500588     0.005394
AU8860   AU        0.382941    0.618235    0.471176     0.007504
AU8861   AU        0.412353    0.588824    0.471176     0.007504
PD8862   PD        0.412353    0.618235    0.500588     0.005394
AU8863   AU        0.441765    0.588824    0.500588     0.007504
AU8864   AU        0.441765    0.618235    0.471176     0.007504
AU8865   AU        0.471176    0.588824    0.471176     0.007504
AU8866   AU        0.471176    0.618235    0.500588     0.007504
AU8867   AU        0.500588    0.588824    0.500588     0.007504
AU8868   AU        0.500588    0.618235    0.471176     0.007504
AU8869   AU        0.530000    0.588824    0.471176     0.007504
AU8870   AU        0.530000    0.618235    0.500588     0.007504
AU8871   AU        0.559412    0.588824    0.500588     0.007504
AU8872   AU        0.559412    0.618235    0.471176     0.007504
AU8873   AU        0.588824    0.588824    0.471176     0.007504
PD8874   PD        0.588824    0.618235    0.500588     0.005394
PD8875   PD        0.618235    0.588824    0.500588     0.005394
PD8876   PD        0.618235    0.618235    0.471176     0.005394
AU8877   AU        0.647647    0.588824    0.471176     0.007504
PD8878   PD        0.647647    0.618235    0.500588     0.005394
PD8879   PD        0.677059    0.588824    0.500588     0.005394
AU8880   AU        0.677059    0.618235    0.471176     0.007504
PD8881   PD        0.706471    0.588824    0.471176     0.005394
PD8882   PD        0.706471    0.618235    0.500588     0.005394
AU8883   AU        0.735882    0.588824    0.500588     0.007504
PD8884   PD        0.735882    0.618235    0.471176     0.005394
AU8885   AU        0.765294    0.588824    0.471176     0.007504
AU8886   AU        0.765294    0.618235    0.500588     0.007504
PD8887   PD        0.794706    0.588824    0.500588     0.005394
PD8888   PD        0.794706    0.618235    0.471176     0.005394
PD8909   PD        0.177059    0.647647    0.471176     0.005394
AU8910   AU        0.177059    0.677059    0.500588     0.007504
PD8911   PD        0.206471    0.647647    0.500588     0.005394
AU8912   AU        0.206471    0.677059    0.471176     0.007504
PD8913   PD        0.235882    0.647647    0.471176     0.005394
AU8914   AU        0.235882    0.677059    0.500588     0.007504
AU8915   AU        0.265294    0.647647    0.500588     0.007504
AU8916   AU        0.265294    0.677059    0.471176     0.007504
PD8917   PD        0.294706    0.647647    0.471176     0.005394
PD8918   PD        0.294706    0.677059    0.500588     0.005394
PD8919   PD        0.324118    0.647647    0.500588     0.005394
AU8920   AU        0.324118    0.677059    0.471176     0.007504
PD8921   PD        0.353529    0.647647    0.471176     0.005394
PD8922   PD        0.353529    0.677059    0.500588     0.005394
AU8923   AU        0.382941    0.647647    0.500588     0.007504
PD8924   PD        0.382941    0.677059    0.471176     0.005394
AU8925   AU        0.412353    0.647647    0.471176     0.007504
AU8926   AU        0.412353    0.677059    0.500588     0.007504
AU8927   AU        0.441765    0.647647    0.500588     0.007504
AU8928   AU        0.441765    0.677059    0.471176     0.007504
AU8929   AU        0.471176    0.647647    0.471176     0.007504
PD8930   PD        0.471176    0.677059    0.500588     0.005394
AU8931   AU        0.500588    0.647647    0.500588     0.007504
PD8932   PD        0.500588    0.677059    0.471176     0.005394
AU8933   AU        0.530000    0.647647    0.471176     0.007504
PD8934   PD        0.530000    0.677059    0.500588     0.005394
AU8935   AU        0.559412    0.647647    0.500588     0.007504
PD8936   PD        0.559412    0.677059    0.471176     0.005394
AU8937   AU        0.588824    0.647647    0.471176     0.007504
PD8938   PD        0.588824    0.677059    0.500588     0.005394
PD8939   PD        0.618235    0.647647    0.500588     0.005394
PD8940   PD        0.618235    0.677059    0.471176     0.005394
PD8941   PD        0.647647    0.647647    0.471176     0.005394
PD8942   PD        0.647647    0.677059    0.500588     0.005394
AU8943   AU        0.677059    0.647647    0.500588     0.007504
PD8944   PD        0.677059    0.677059    0.471176     0.005394
AU8945   AU        0.706471    0.647647    0.471176     0.007504
AU8946   AU        0.706471    0.677059    0.500588     0.007504
PD8947   PD        0.735882    0.647647    0.500588     0.005394
AU8948   AU        0.735882    0.677059    0.471176     0.007504
PD8949   PD        0.765294    0.647647    0.471176     0.005394
PD8950   PD        0.765294    0.677059    0.500588     0.005394
PD8975   PD        0.206471    0.706471    0.500588     0.005394
AU8977   AU        0.235882    0.706471    0.471176     0.007504
PD8978   PD        0.235882    0.735882    0.500588     0.005394
AU8979   AU        0.265294    0.706471    0.500588     0.007504
PD8980   PD        0.265294    0.735882    0.471176     0.005394
PD8981   PD        0.294706    0.706471    0.471176     0.005394
AU8982   AU        0.294706    0.735882    0.500588     0.007504
AU8983   AU        0.324118    0.706471    0.500588     0.007504
PD8984   PD        0.324118    0.735882    0.471176     0.005394
PD8985   PD        0.353529    0.706471    0.471176     0.005394
PD8986   PD        0.353529    0.735882    0.500588     0.005394
PD8987   PD        0.382941    0.706471    0.500588     0.005394
PD8988   PD        0.382941    0.735882    0.471176     0.005394
PD8989   PD        0.412353    0.706471    0.471176     0.005394
PD8990   PD        0.412353    0.735882    0.500588     0.005394
AU8991   AU        0.441765    0.706471    0.500588     0.007504
PD8992   PD        0.441765    0.735882    0.471176     0.005394
PD8993   PD        0.471176    0.706471    0.471176     0.005394
AU8994   AU        0.471176    0.735882    0.500588     0.007504
AU8995   AU        0.500588    0.706471    0.500588     0.007504
PD8996   PD        0.500588    0.735882    0.471176     0.005394
PD8997   PD        0.530000    0.706471    0.471176     0.005394
PD8998   PD        0.530000    0.735882    0.500588     0.005394
PD8999   PD        0.559412    0.706471    0.500588     0.005394
PD9000   PD        0.559412    0.735882    0.471176     0.005394
AU9001   AU        0.588824    0.706471    0.471176     0.007504
PD9002   PD        0.588824    0.735882    0.500588     0.005394
PD9003   PD        0.618235    0.706471    0.500588     0.005394
PD9004   PD        0.618235    0.735882    0.471176     0.005394
PD9005   PD        0.647647    0.706471    0.471176     0.005394
AU9006   AU        0.647647    0.735882    0.500588     0.007504
PD9007   PD        0.677059    0.706471    0.500588     0.005394
PD9008   PD        0.677059    0.735882    0.471176     0.005394
PD9009   PD        0.706471    0.706471    0.471176     0.005394
PD9010   PD        0.706471    0.735882    0.500588     0.005394
AU9011   AU        0.735882    0.706471    0.500588     0.007504
AU9043   AU        0.265294    0.765294    0.500588     0.007504
AU9045   AU        0.294706    0.765294    0.471176     0.007504
PD9047   PD        0.324118    0.765294    0.500588     0.005394
PD9048   PD        0.324118    0.794706    0.471176     0.005394
AU9049   AU        0.353529    0.765294    0.471176     0.007504
AU9050   AU        0.353529    0.794706    0.500588     0.007504
PD9051   PD        0.382941    0.765294    0.500588     0.005394
PD9052   PD        0.382941    0.794706    0.471176     0.005394
PD9053   PD        0.412353    0.765294    0.471176     0.005394
PD9054   PD        0.412353    0.794706    0.500588     0.005394
PD9055   PD        0.441765    0.765294    0.500588     0.005394
PD9056   PD        0.441765    0.794706    0.471176     0.005394
PD9057   PD        0.471176    0.765294    0.471176     0.005394
AU9058   AU        0.471176    0.794706    0.500588     0.007504
AU9059   AU        0.500588    0.765294    0.500588     0.007504
PD9060   PD        0.500588    0.794706    0.471176     0.005394
PD9061   PD        0.530000    0.765294    0.471176     0.005394
PD9062   PD        0.530000    0.794706    0.500588     0.005394
PD9063   PD        0.559412    0.765294    0.500588     0.005394
PD9064   PD        0.559412    0.794706    0.471176     0.005394
PD9065   PD        0.588824    0.765294    0.471176     0.005394
AU9066   AU        0.588824    0.794706    0.500588     0.007504
PD9067   PD        0.618235    0.765294    0.500588     0.005394
AU9068   AU        0.618235    0.794706    0.471176     0.007504
PD9069   PD        0.647647    0.765294    0.471176     0.005394
PD9071   PD        0.677059    0.765294    0.500588     0.005394
PD9117   PD        0.412353    0.824118    0.471176     0.005394
PD9119   PD        0.441765    0.824118    0.500588     0.005394
PD9121   PD        0.471176    0.824118    0.471176     0.005394
AU9123   AU        0.500588    0.824118    0.500588     0.007504
AU9125   AU        0.530000    0.824118    0.471176     0.007504
AU9368   AU        0.324118    0.147647    0.530000     0.007504
PD9370   PD        0.353529    0.147647    0.559412     0.005394
PD9372   PD        0.382941    0.147647    0.530000     0.005394
PD9374   PD        0.412353    0.147647    0.559412     0.005394
PD9376   PD        0.441765    0.147647    0.530000     0.005394
PD9377   PD        0.471176    0.118235    0.530000     0.005394
AU9378   AU        0.471176    0.147647    0.559412     0.007504
PD9380   PD        0.500588    0.147647    0.530000     0.005394
PD9382   PD        0.530000    0.147647    0.559412     0.005394
AU9384   AU        0.559412    0.147647    0.530000     0.007504
PD9386   PD        0.588824    0.147647    0.559412     0.005394
PD9388   PD        0.618235    0.147647    0.530000     0.005394
PD9428   PD        0.265294    0.206471    0.530000     0.005394
PD9429   PD        0.294706    0.177059    0.530000     0.005394
PD9430   PD        0.294706    0.206471    0.559412     0.005394
AU9431   AU        0.324118    0.177059    0.559412     0.007504
PD9432   PD        0.324118    0.206471    0.530000     0.005394
PD9433   PD        0.353529    0.177059    0.530000     0.005394
AU9434   AU        0.353529    0.206471    0.559412     0.007504
AU9435   AU        0.382941    0.177059    0.559412     0.007504
PD9436   PD        0.382941    0.206471    0.530000     0.005394
PD9437   PD        0.412353    0.177059    0.530000     0.005394
PD9438   PD        0.412353    0.206471    0.559412     0.005394
PD9439   PD        0.441765    0.177059    0.559412     0.005394
AU9440   AU        0.441765    0.206471    0.530000     0.007504
PD9441   PD        0.471176    0.177059    0.530000     0.005394
AU9442   AU        0.471176    0.206471    0.559412     0.007504
PD9443   PD        0.500588    0.177059    0.559412     0.005394
AU9444   AU        0.500588    0.206471    0.530000     0.007504
AU9445   AU        0.530000    0.177059    0.530000     0.007504
PD9446   PD        0.530000    0.206471    0.559412     0.005394
PD9447   PD        0.559412    0.177059    0.559412     0.005394
AU9448   AU        0.559412    0.206471    0.530000     0.007504
AU9449   AU        0.588824    0.177059    0.530000     0.007504
AU9450   AU        0.588824    0.206471    0.559412     0.007504
PD9451   PD        0.618235    0.177059    0.559412     0.005394
PD9452   PD        0.618235    0.206471    0.530000     0.005394
PD9453   PD        0.647647    0.177059    0.530000     0.005394
AU9454   AU        0.647647    0.206471    0.559412     0.007504
PD9456   PD        0.677059    0.206471    0.530000     0.005394
AU9488   AU        0.206471    0.265294    0.530000     0.007504
PD9489   PD        0.235882    0.235882    0.530000     0.005394
PD9490   PD        0.235882    0.265294    0.559412     0.005394
PD9491   PD        0.265294    0.235882    0.559412     0.005394
PD9492   PD        0.265294    0.265294    0.530000     0.005394
PD9493   PD        0.294706    0.235882    0.530000     0.005394
PD9494   PD        0.294706    0.265294    0.559412     0.005394
PD9495   PD        0.324118    0.235882    0.559412     0.005394
PD9496   PD        0.324118    0.265294    0.530000     0.005394
PD9497   PD        0.353529    0.235882    0.530000     0.005394
PD9498   PD        0.353529    0.265294    0.559412     0.005394
PD9499   PD        0.382941    0.235882    0.559412     0.005394
AU9500   AU        0.382941    0.265294    0.530000     0.007504
AU9501   AU        0.412353    0.235882    0.530000     0.007504
AU9502   AU        0.412353    0.265294    0.559412     0.007504
AU9503   AU        0.441765    0.235882    0.559412     0.007504
AU9504   AU        0.441765    0.265294    0.530000     0.007504
AU9505   AU        0.471176    0.235882    0.530000     0.007504
PD9506   PD        0.471176    0.265294    0.559412     0.005394
PD9507   PD        0.500588    0.235882    0.559412     0.005394
PD9508   PD        0.500588    0.265294    0.530000     0.005394
PD9509   PD        0.530000    0.235882    0.530000     0.005394
PD9510   PD        0.530000    0.265294    0.559412     0.005394
PD9511   PD        0.559412    0.235882    0.559412     0.005394
AU9512   AU        0.559412    0.265294    0.530000     0.007504
PD9513   PD        0.588824    0.235882    0.530000     0.005394
AU9514   AU        0.588824    0.265294    0.559412     0.007504
PD9515   PD        0.618235    0.235882    0.559412     0.005394
AU9516   AU        0.618235    0.265294    0.530000     0.007504
PD9517   PD        0.647647    0.235882    0.530000     0.005394
PD9518   PD        0.647647    0.265294    0.559412     0.005394
PD9519   PD        0.677059    0.235882    0.559412     0.005394
PD9520   PD        0.677059    0.265294    0.530000     0.005394
AU9521   AU        0.706471    0.235882    0.530000     0.007504
PD9522   PD        0.706471    0.265294    0.559412     0.005394
AU9524   AU        0.735882    0.265294    0.530000     0.007504
PD9548   PD        0.147647    0.324118    0.530000     0.005394
PD9549   PD        0.177059    0.294706    0.530000     0.005394
AU9550   AU        0.177059    0.324118    0.559412     0.007504
PD9551   PD        0.206471    0.294706    0.559412     0.005394
AU9552   AU        0.206471    0.324118    0.530000     0.007504
PD9553   PD        0.235882    0.294706    0.530000     0.005394
PD9554   PD        0.235882    0.324118    0.559412     0.005394
PD9555   PD        0.265294    0.294706    0.559412     0.005394
PD9556   PD        0.265294    0.324118    0.530000     0.005394
PD9557   PD        0.294706    0.294706    0.530000     0.005394
AU9558   AU        0.294706    0.324118    0.559412     0.007504
PD9559   PD        0.324118    0.294706    0.559412     0.005394
PD9560   PD        0.324118    0.324118    0.530000     0.005394
PD9561   PD        0.353529    0.294706    0.530000     0.005394
AU9562   AU        0.353529    0.324118    0.559412     0.007504
AU9563   AU        0.382941    0.294706    0.559412     0.007504
AU9564   AU        0.382941    0.324118    0.530000     0.007504
AU9565   AU        0.412353    0.294706    0.530000     0.007504
AU9566   AU        0.412353    0.324118    0.559412     0.007504
AU9567   AU        0.441765    0.294706    0.559412     0.007504
PD9568   PD        0.441765    0.324118    0.530000     0.005394
AU9569   AU        0.471176    0.294706    0.530000     0.007504
AU9570   AU        0.471176    0.324118    0.559412     0.007504
PD9571   PD        0.500588    0.294706    0.559412     0.005394
AU9572   AU        0.500588    0.324118    0.530000     0.007504
PD9573   PD        0.530000    0.294706    0.530000     0.005394
AU9574   AU        0.530000    0.324118    0.559412     0.007504
PD9575   PD        0.559412    0.294706    0.559412     0.005394
AU9576   AU        0.559412    0.324118    0.530000     0.007504
PD9577   PD        0.588824    0.294706    0.530000     0.005394
AU9578   AU        0.588824    0.324118    0.559412     0.007504
PD9579   PD        0.618235    0.294706    0.559412     0.005394
AU9580   AU        0.618235    0.324118    0.530000     0.007504
AU9581   AU        0.647647    0.294706    0.530000     0.007504
PD9582   PD        0.647647    0.324118    0.559412     0.005394
PD9583   PD        0.677059    0.294706    0.559412     0.005394
AU9584   AU        0.677059    0.324118    0.530000     0.007504
PD9585   PD        0.706471    0.294706    0.530000     0.005394
PD9586   PD        0.706471    0.324118    0.559412     0.005394
AU9587   AU        0.735882    0.294706    0.559412     0.007504
AU9588   AU        0.735882    0.324118    0.530000     0.007504
AU9589   AU        0.765294    0.294706    0.530000     0.007504
AU9590   AU        0.765294    0.324118    0.559412     0.007504
AU9592   AU        0.794706    0.324118    0.530000     0.007504
PD9611   PD        0.147647    0.353529    0.559412     0.005394
AU9612   AU        0.147647    0.382941    0.530000     0.007504
PD9613   PD        0.177059    0.353529    0.530000     0.005394
PD9614   PD        0.177059    0.382941    0.559412     0.005394
PD9615   PD        0.206471    0.353529    0.559412     0.005394
PD9616   PD        0.206471    0.382941    0.530000     0.005394
PD9617   PD        0.235882    0.353529    0.530000     0.005394
AU9618   AU        0.235882    0.382941    0.559412     0.007504
AU9619   AU        0.265294    0.353529    0.559412     0.007504
PD9620   PD        0.265294    0.382941    0.530000     0.005394
AU9621   AU        0.294706    0.353529    0.530000     0.007504
AU9622   AU        0.294706    0.382941    0.559412     0.007504
AU9623   AU        0.324118    0.353529    0.559412     0.007504
AU9624   AU        0.324118    0.382941    0.530000     0.007504
AU9625   AU        0.353529    0.353529    0.530000     0.007504
PD9626   PD        0.353529    0.382941    0.559412     0.005394
PD9627   PD        0.382941    0.353529    0.559412     0.005394
AU9628   AU        0.382941    0.382941    0.530000     0.007504
AU9629   AU        0.412353    0.353529    0.530000     0.007504
PD9630   PD        0.412353    0.382941    0.559412     0.005394
AU9631   AU        0.441765    0.353529    0.559412     0.007504
PD9632   PD        0.441765    0.382941    0.530000     0.005394
AU9633   AU        0.471176    0.353529    0.530000     0.007504
AU9634   AU        0.471176    0.382941    0.559412     0.007504
AU9635   AU        0.500588    0.353529    0.559412     0.007504
AU9636   AU        0.500588    0.382941    0.530000     0.007504
AU9637   AU        0.530000    0.353529    0.530000     0.007504
AU9638   AU        0.530000    0.382941    0.559412     0.007504
AU9639   AU        0.559412    0.353529    0.559412     0.007504
PD9640   PD        0.559412    0.382941    0.530000     0.005394
AU9641   AU        0.588824    0.353529    0.530000     0.007504
AU9642   AU        0.588824    0.382941    0.559412     0.007504
PD9643   PD        0.618235    0.353529    0.559412     0.005394
AU9644   AU        0.618235    0.382941    0.530000     0.007504
AU9645   AU        0.647647    0.353529    0.530000     0.007504
AU9646   AU        0.647647    0.382941    0.559412     0.007504
PD9647   PD        0.677059    0.353529    0.559412     0.005394
AU9648   AU        0.677059    0.382941    0.530000     0.007504
PD9649   PD        0.706471    0.353529    0.530000     0.005394
AU9650   AU        0.706471    0.382941    0.559412     0.007504
PD9651   PD        0.735882    0.353529    0.559412     0.005394
PD9652   PD        0.735882    0.382941    0.530000     0.005394
PD9653   PD        0.765294    0.353529    0.530000     0.005394
PD9654   PD        0.765294    0.382941    0.559412     0.005394
AU9655   AU        0.794706    0.353529    0.559412     0.007504
PD9656   PD        0.794706    0.382941    0.530000     0.005394
AU9675   AU        0.147647    0.412353    0.559412     0.007504
PD9676   PD        0.147647    0.441765    0.530000     0.005394
PD9677   PD        0.177059    0.412353    0.530000     0.005394
PD9678   PD        0.177059    0.441765    0.559412     0.005394
AU9679   AU        0.206471    0.412353    0.559412     0.007504
AU9680   AU        0.206471    0.441765    0.530000     0.007504
AU9681   AU        0.235882    0.412353    0.530000     0.007504
AU9682   AU        0.235882    0.441765    0.559412     0.007504
PD9683   PD        0.265294    0.412353    0.559412     0.005394
AU9684   AU        0.265294    0.441765    0.530000     0.007504
AU9685   AU        0.294706    0.412353    0.530000     0.007504
AU9686   AU        0.294706    0.441765    0.559412     0.007504
PD9687   PD        0.324118    0.412353    0.559412     0.005394
AU9688   AU        0.324118    0.441765    0.530000     0.007504
AU9689   AU        0.353529    0.412353    0.530000     0.007504
PD9690   PD        0.353529    0.441765    0.559412     0.005394
AU9691   AU        0.382941    0.412353    0.559412     0.007504
AU9692   AU        0.382941    0.441765    0.530000     0.007504
AU9693   AU        0.412353    0.412353    0.530000     0.007504
AU9694   AU        0.412353    0.441765    0.559412     0.007504
PD9695   PD        0.441765    0.412353    0.559412     0.005394
PD9696   PD        0.441765    0.441765    0.530000     0.005394
AU9697   AU        0.471176    0.412353    0.530000     0.007504
AU9698   AU        0.471176    0.441765    0.559412     0.007504
AU9699   AU        0.500588    0.412353    0.559412     0.007504
AU9700   AU        0.500588    0.441765    0.530000     0.007504
AU9701   AU        0.530000    0.412353    0.530000     0.007504
PD9702   PD        0.530000    0.441765    0.559412     0.005394
AU9703   AU        0.559412    0.412353    0.559412     0.007504
AU9704   AU        0.559412    0.441765    0.530000     0.007504
PD9705   PD        0.588824    0.412353    0.530000     0.005394
PD9706   PD        0.588824    0.441765    0.559412     0.005394
PD9707   PD        0.618235    0.412353    0.559412     0.005394
PD9708   PD        0.618235    0.441765    0.530000     0.005394
AU9709   AU        0.647647    0.412353    0.530000     0.007504
PD9710   PD        0.647647    0.441765    0.559412     0.005394
PD9711   PD        0.677059    0.412353    0.559412     0.005394
AU9712   AU        0.677059    0.441765    0.530000     0.007504
PD9713   PD        0.706471    0.412353    0.530000     0.005394
PD9714   PD        0.706471    0.441765    0.559412     0.005394
PD9715   PD        0.735882    0.412353    0.559412     0.005394
AU9716   AU        0.735882    0.441765    0.530000     0.007504
PD9717   PD        0.765294    0.412353    0.530000     0.005394
PD9718   PD        0.765294    0.441765    0.559412     0.005394
AU9719   AU        0.794706    0.412353    0.559412     0.007504
AU9720   AU        0.794706    0.441765    0.530000     0.007504
PD9737   PD        0.118235    0.471176    0.530000     0.005394
AU9739   AU        0.147647    0.471176    0.559412     0.007504
PD9740   PD        0.147647    0.500588    0.530000     0.005394
PD9741   PD        0.177059    0.471176    0.530000     0.005394
PD9742   PD        0.177059    0.500588    0.559412     0.005394
PD9743   PD        0.206471    0.471176    0.559412     0.005394
PD9744   PD        0.206471    0.500588    0.530000     0.005394
AU9745   AU        0.235882    0.471176    0.530000     0.007504
AU9746   AU        0.235882    0.500588    0.559412     0.007504
AU9747   AU        0.265294    0.471176    0.559412     0.007504
PD9748   PD        0.265294    0.500588    0.530000     0.005394
AU9749   AU        0.294706    0.471176    0.530000     0.007504
PD9750   PD        0.294706    0.500588    0.559412     0.005394
AU9751   AU        0.324118    0.471176    0.559412     0.007504
AU9752   AU        0.324118    0.500588    0.530000     0.007504
AU9753   AU        0.353529    0.471176    0.530000     0.007504
AU9754   AU        0.353529    0.500588    0.559412     0.007504
AU9755   AU        0.382941    0.471176    0.559412     0.007504
AU9756   AU        0.382941    0.500588    0.530000     0.007504
AU9757   AU        0.412353    0.471176    0.530000     0.007504
AU9758   AU        0.412353    0.500588    0.559412     0.007504
AU9759   AU        0.441765    0.471176    0.559412     0.007504
AU9760   AU        0.441765    0.500588    0.530000     0.007504
AU9761   AU        0.471176    0.471176    0.530000     0.007504
AU9762   AU        0.471176    0.500588    0.559412     0.007504
AU9763   AU        0.500588    0.471176    0.559412     0.007504
AU9764   AU        0.500588    0.500588    0.530000     0.007504
AU9765   AU        0.530000    0.471176    0.530000     0.007504
AU9766   AU        0.530000    0.500588    0.559412     0.007504
AU9767   AU        0.559412    0.471176    0.559412     0.007504
AU9768   AU        0.559412    0.500588    0.530000     0.007504
AU9769   AU        0.588824    0.471176    0.530000     0.007504
AU9770   AU        0.588824    0.500588    0.559412     0.007504
AU9771   AU        0.618235    0.471176    0.559412     0.007504
PD9772   PD        0.618235    0.500588    0.530000     0.005394
AU9773   AU        0.647647    0.471176    0.530000     0.007504
PD9774   PD        0.647647    0.500588    0.559412     0.005394
AU9775   AU        0.677059    0.471176    0.559412     0.007504
PD9776   PD        0.677059    0.500588    0.530000     0.005394
AU9777   AU        0.706471    0.471176    0.530000     0.007504
PD9778   PD        0.706471    0.500588    0.559412     0.005394
PD9779   PD        0.735882    0.471176    0.559412     0.005394
AU9780   AU        0.735882    0.500588    0.530000     0.007504
PD9781   PD        0.765294    0.471176    0.530000     0.005394
PD9782   PD        0.765294    0.500588    0.559412     0.005394
AU9783   AU        0.794706    0.471176    0.559412     0.007504
PD9784   PD        0.794706    0.500588    0.530000     0.005394
PD9785   PD        0.824118    0.471176    0.530000     0.005394
PD9803   PD        0.147647    0.530000    0.559412     0.005394
PD9804   PD        0.147647    0.559412    0.530000     0.005394
AU9805   AU        0.177059    0.530000    0.530000     0.007504
PD9806   PD        0.177059    0.559412    0.559412     0.005394
PD9807   PD        0.206471    0.530000    0.559412     0.005394
PD9808   PD        0.206471    0.559412    0.530000     0.005394
AU9809   AU        0.235882    0.530000    0.530000     0.007504
AU9810   AU        0.235882    0.559412    0.559412     0.007504
PD9811   PD        0.265294    0.530000    0.559412     0.005394
PD9812   PD        0.265294    0.559412    0.530000     0.005394
PD9813   PD        0.294706    0.530000    0.530000     0.005394
PD9814   PD        0.294706    0.559412    0.559412     0.005394
AU9815   AU        0.324118    0.530000    0.559412     0.007504
AU9816   AU        0.324118    0.559412    0.530000     0.007504
AU9817   AU        0.353529    0.530000    0.530000     0.007504
AU9818   AU        0.353529    0.559412    0.559412     0.007504
AU9819   AU        0.382941    0.530000    0.559412     0.007504
AU9820   AU        0.382941    0.559412    0.530000     0.007504
AU9821   AU        0.412353    0.530000    0.530000     0.007504
AU9822   AU        0.412353    0.559412    0.559412     0.007504
AU9823   AU        0.441765    0.530000    0.559412     0.007504
PD9824   PD        0.441765    0.559412    0.530000     0.005394
AU9825   AU        0.471176    0.530000    0.530000     0.007504
AU9826   AU        0.471176    0.559412    0.559412     0.007504
AU9827   AU        0.500588    0.530000    0.559412     0.007504
AU9828   AU        0.500588    0.559412    0.530000     0.007504
AU9829   AU        0.530000    0.530000    0.530000     0.007504
AU9830   AU        0.530000    0.559412    0.559412     0.007504
PD9831   PD        0.559412    0.530000    0.559412     0.005394
AU9832   AU        0.559412    0.559412    0.530000     0.007504
AU9833   AU        0.588824    0.530000    0.530000     0.007504
AU9834   AU        0.588824    0.559412    0.559412     0.007504
AU9835   AU        0.618235    0.530000    0.559412     0.007504
PD9836   PD        0.618235    0.559412    0.530000     0.005394
PD9837   PD        0.647647    0.530000    0.530000     0.005394
PD9838   PD        0.647647    0.559412    0.559412     0.005394
PD9839   PD        0.677059    0.530000    0.559412     0.005394
PD9840   PD        0.677059    0.559412    0.530000     0.005394
AU9841   AU        0.706471    0.530000    0.530000     0.007504
PD9842   PD        0.706471    0.559412    0.559412     0.005394
PD9843   PD        0.735882    0.530000    0.559412     0.005394
PD9844   PD        0.735882    0.559412    0.530000     0.005394
PD9845   PD        0.765294    0.530000    0.530000     0.005394
AU9846   AU        0.765294    0.559412    0.559412     0.007504
PD9847   PD        0.794706    0.530000    0.559412     0.005394
AU9848   AU        0.794706    0.559412    0.530000     0.007504
AU9867   AU        0.147647    0.588824    0.559412     0.007504
AU9868   AU        0.147647    0.618235    0.530000     0.007504
PD9869   PD        0.177059    0.588824    0.530000     0.005394
AU9870   AU        0.177059    0.618235    0.559412     0.007504
AU9871   AU        0.206471    0.588824    0.559412     0.007504
PD9872   PD        0.206471    0.618235    0.530000     0.005394
PD9873   PD        0.235882    0.588824    0.530000     0.005394
PD9874   PD        0.235882    0.618235    0.559412     0.005394
AU9875   AU        0.265294    0.588824    0.559412     0.007504
AU9876   AU        0.265294    0.618235    0.530000     0.007504
AU9877   AU        0.294706    0.588824    0.530000     0.007504
PD9878   PD        0.294706    0.618235    0.559412     0.005394
PD9879   PD        0.324118    0.588824    0.559412     0.005394
PD9880   PD        0.324118    0.618235    0.530000     0.005394
AU9881   AU        0.353529    0.588824    0.530000     0.007504
PD9882   PD        0.353529    0.618235    0.559412     0.005394
AU9883   AU        0.382941    0.588824    0.559412     0.007504
AU9884   AU        0.382941    0.618235    0.530000     0.007504
AU9885   AU        0.412353    0.588824    0.530000     0.007504
PD9886   PD        0.412353    0.618235    0.559412     0.005394
AU9887   AU        0.441765    0.588824    0.559412     0.007504
PD9888   PD        0.441765    0.618235    0.530000     0.005394
AU9889   AU        0.471176    0.588824    0.530000     0.007504
AU9890   AU        0.471176    0.618235    0.559412     0.007504
AU9891   AU        0.500588    0.588824    0.559412     0.007504
AU9892   AU        0.500588    0.618235    0.530000     0.007504
AU9893   AU        0.530000    0.588824    0.530000     0.007504
PD9894   PD        0.530000    0.618235    0.559412     0.005394
AU9895   AU        0.559412    0.588824    0.559412     0.007504
AU9896   AU        0.559412    0.618235    0.530000     0.007504
AU9897   AU        0.588824    0.588824    0.530000     0.007504
AU9898   AU        0.588824    0.618235    0.559412     0.007504
AU9899   AU        0.618235    0.588824    0.559412     0.007504
PD9900   PD        0.618235    0.618235    0.530000     0.005394
PD9901   PD        0.647647    0.588824    0.530000     0.005394
PD9902   PD        0.647647    0.618235    0.559412     0.005394
PD9903   PD        0.677059    0.588824    0.559412     0.005394
PD9904   PD        0.677059    0.618235    0.530000     0.005394
AU9905   AU        0.706471    0.588824    0.530000     0.007504
PD9906   PD        0.706471    0.618235    0.559412     0.005394
PD9907   PD        0.735882    0.588824    0.559412     0.005394
AU9908   AU        0.735882    0.618235    0.530000     0.007504
PD9909   PD        0.765294    0.588824    0.530000     0.005394
AU9910   AU        0.765294    0.618235    0.559412     0.007504
AU9911   AU        0.794706    0.588824    0.559412     0.007504
PD9912   PD        0.794706    0.618235    0.530000     0.005394
PD9933   PD        0.177059    0.647647    0.530000     0.005394
PD9935   PD        0.206471    0.647647    0.559412     0.005394
PD9936   PD        0.206471    0.677059    0.530000     0.005394
PD9937   PD        0.235882    0.647647    0.530000     0.005394
PD9938   PD        0.235882    0.677059    0.559412     0.005394
AU9939   AU        0.265294    0.647647    0.559412     0.007504
AU9940   AU        0.265294    0.677059    0.530000     0.007504
PD9941   PD        0.294706    0.647647    0.530000     0.005394
AU9942   AU        0.294706    0.677059    0.559412     0.007504
AU9943   AU        0.324118    0.647647    0.559412     0.007504
PD9944   PD        0.324118    0.677059    0.530000     0.005394
AU9945   AU        0.353529    0.647647    0.530000     0.007504
AU9946   AU        0.353529    0.677059    0.559412     0.007504
AU9947   AU        0.382941    0.647647    0.559412     0.007504
AU9948   AU        0.382941    0.677059    0.530000     0.007504
AU9949   AU        0.412353    0.647647    0.530000     0.007504
PD9950   PD        0.412353    0.677059    0.559412     0.005394
AU9951   AU        0.441765    0.647647    0.559412     0.007504
AU9952   AU        0.441765    0.677059    0.530000     0.007504
PD9953   PD        0.471176    0.647647    0.530000     0.005394
PD9954   PD        0.471176    0.677059    0.559412     0.005394
AU9955   AU        0.500588    0.647647    0.559412     0.007504
AU9956   AU        0.500588    0.677059    0.530000     0.007504
AU9957   AU        0.530000    0.647647    0.530000     0.007504
AU9958   AU        0.530000    0.677059    0.559412     0.007504
AU9959   AU        0.559412    0.647647    0.559412     0.007504
AU9960   AU        0.559412    0.677059    0.530000     0.007504
AU9961   AU        0.588824    0.647647    0.530000     0.007504
PD9962   PD        0.588824    0.677059    0.559412     0.005394
PD9963   PD        0.618235    0.647647    0.559412     0.005394
PD9964   PD        0.618235    0.677059    0.530000     0.005394
PD9965   PD        0.647647    0.647647    0.530000     0.005394
PD9966   PD        0.647647    0.677059    0.559412     0.005394
AU9967   AU        0.677059    0.647647    0.559412     0.007504
PD9968   PD        0.677059    0.677059    0.530000     0.005394
PD9969   PD        0.706471    0.647647    0.530000     0.005394
AU9970   AU        0.706471    0.677059    0.559412     0.007504
PD9971   PD        0.735882    0.647647    0.559412     0.005394
AU9972   AU        0.735882    0.677059    0.530000     0.007504
PD9973   PD        0.765294    0.647647    0.530000     0.005394
PD10001   PD        0.235882    0.706471    0.530000     0.005394
PD10003   PD        0.265294    0.706471    0.559412     0.005394
AU10004   AU        0.265294    0.735882    0.530000     0.007504
AU10005   AU        0.294706    0.706471    0.530000     0.007504
PD10006   PD        0.294706    0.735882    0.559412     0.005394
PD10007   PD        0.324118    0.706471    0.559412     0.005394
PD10008   PD        0.324118    0.735882    0.530000     0.005394
PD10009   PD        0.353529    0.706471    0.530000     0.005394
PD10010   PD        0.353529    0.735882    0.559412     0.005394
AU10011   AU        0.382941    0.706471    0.559412     0.007504
AU10012   AU        0.382941    0.735882    0.530000     0.007504
AU10013   AU        0.412353    0.706471    0.530000     0.007504
AU10014   AU        0.412353    0.735882    0.559412     0.007504
PD10015   PD        0.441765    0.706471    0.559412     0.005394
PD10016   PD        0.441765    0.735882    0.530000     0.005394
PD10017   PD        0.471176    0.706471    0.530000     0.005394
AU10018   AU        0.471176    0.735882    0.559412     0.007504
PD10019   PD        0.500588    0.706471    0.559412     0.005394
PD10020   PD        0.500588    0.735882    0.530000     0.005394
AU10021   AU        0.530000    0.706471    0.530000     0.007504
PD10022   PD        0.530000    0.735882    0.559412     0.005394
PD10023   PD        0.559412    0.706471    0.559412     0.005394
AU10024   AU        0.559412    0.735882    0.530000     0.007504
PD10025   PD        0.588824    0.706471    0.530000     0.005394
AU10026   AU        0.588824    0.735882    0.559412     0.007504
PD10027   PD        0.618235    0.706471    0.559412     0.005394
AU10028   AU        0.618235    0.735882    0.530000     0.007504
PD10029   PD        0.647647    0.706471    0.530000     0.005394
PD10030   PD        0.647647    0.735882    0.559412     0.005394
PD10031   PD        0.677059    0.706471    0.559412     0.005394
PD10032   PD        0.677059    0.735882    0.530000     0.005394
AU10033   AU        0.706471    0.706471    0.530000     0.007504
AU10069   AU        0.294706    0.765294    0.530000     0.007504
PD10071   PD        0.324118    0.765294    0.559412     0.005394
PD10072   PD        0.324118    0.794706    0.530000     0.005394
PD10073   PD        0.353529    0.765294    0.530000     0.005394
PD10074   PD        0.353529    0.794706    0.559412     0.005394
AU10075   AU        0.382941    0.765294    0.559412     0.007504
PD10076   PD        0.382941    0.794706    0.530000     0.005394
PD10077   PD        0.412353    0.765294    0.530000     0.005394
PD10078   PD        0.412353    0.794706    0.559412     0.005394
PD10079   PD        0.441765    0.765294    0.559412     0.005394
AU10080   AU        0.441765    0.794706    0.530000     0.007504
PD10081   PD        0.471176    0.765294    0.530000     0.005394
AU10082   AU        0.471176    0.794706    0.559412     0.007504
PD10083   PD        0.500588    0.765294    0.559412     0.005394
PD10084   PD        0.500588    0.794706    0.530000     0.005394
AU10085   AU        0.530000    0.765294    0.530000     0.007504
AU10086   AU        0.530000    0.794706    0.559412     0.007504
AU10087   AU        0.559412    0.765294    0.559412     0.007504
PD10088   PD        0.559412    0.794706    0.530000     0.005394
PD10089   PD        0.588824    0.765294    0.530000     0.005394
PD10090   PD        0.588824    0.794706    0.559412     0.005394
PD10091   PD        0.618235    0.765294    0.559412     0.005394
AU10092   AU        0.618235    0.794706    0.530000     0.007504
PD10093   PD        0.647647    0.765294    0.530000     0.005394
PD10145   PD        0.471176    0.824118    0.530000     0.005394
AU10396   AU        0.382941    0.147647    0.588824     0.007504
AU10398   AU        0.412353    0.147647    0.618235     0.007504
PD10400   PD        0.441765    0.147647    0.588824     0.005394
AU10402   AU        0.471176    0.147647    0.618235     0.007504
AU10404   AU        0.500588    0.147647    0.588824     0.007504
AU10406   AU        0.530000    0.147647    0.618235     0.007504
AU10408   AU        0.559412    0.147647    0.588824     0.007504
PD10452   PD        0.265294    0.206471    0.588824     0.005394
PD10454   PD        0.294706    0.206471    0.618235     0.005394
PD10455   PD        0.324118    0.177059    0.618235     0.005394
AU10456   AU        0.324118    0.206471    0.588824     0.007504
AU10457   AU        0.353529    0.177059    0.588824     0.007504
PD10458   PD        0.353529    0.206471    0.618235     0.005394
PD10459   PD        0.382941    0.177059    0.618235     0.005394
PD10460   PD        0.382941    0.206471    0.588824     0.005394
PD10461   PD        0.412353    0.177059    0.588824     0.005394
PD10462   PD        0.412353    0.206471    0.618235     0.005394
AU10463   AU        0.441765    0.177059    0.618235     0.007504
AU10464   AU        0.441765    0.206471    0.588824     0.007504
PD10465   PD        0.471176    0.177059    0.588824     0.005394
PD10466   PD        0.471176    0.206471    0.618235     0.005394
PD10467   PD        0.500588    0.177059    0.618235     0.005394
AU10468   AU        0.500588    0.206471    0.588824     0.007504
PD10469   PD        0.530000    0.177059    0.588824     0.005394
AU10470   AU        0.530000    0.206471    0.618235     0.007504
AU10471   AU        0.559412    0.177059    0.618235     0.007504
PD10472   PD        0.559412    0.206471    0.588824     0.005394
PD10473   PD        0.588824    0.177059    0.588824     0.005394
PD10474   PD        0.588824    0.206471    0.618235     0.005394
AU10475   AU        0.618235    0.177059    0.618235     0.007504
AU10476   AU        0.618235    0.206471    0.588824     0.007504
PD10478   PD        0.647647    0.206471    0.618235     0.005394
PD10480   PD        0.677059    0.206471    0.588824     0.005394
PD10512   PD        0.206471    0.265294    0.588824     0.005394
AU10513   AU        0.235882    0.235882    0.588824     0.007504
PD10514   PD        0.235882    0.265294    0.618235     0.005394
PD10515   PD        0.265294    0.235882    0.618235     0.005394
AU10516   AU        0.265294    0.265294    0.588824     0.007504
PD10517   PD        0.294706    0.235882    0.588824     0.005394
PD10518   PD        0.294706    0.265294    0.618235     0.005394
PD10519   PD        0.324118    0.235882    0.618235     0.005394
AU10520   AU        0.324118    0.265294    0.588824     0.007504
AU10521   AU        0.353529    0.235882    0.588824     0.007504
PD10522   PD        0.353529    0.265294    0.618235     0.005394
PD10523   PD        0.382941    0.235882    0.618235     0.005394
AU10524   AU        0.382941    0.265294    0.588824     0.007504
AU10525   AU        0.412353    0.235882    0.588824     0.007504
PD10526   PD        0.412353    0.265294    0.618235     0.005394
AU10527   AU        0.441765    0.235882    0.618235     0.007504
AU10528   AU        0.441765    0.265294    0.588824     0.007504
AU10529   AU        0.471176    0.235882    0.588824     0.007504
AU10530   AU        0.471176    0.265294    0.618235     0.007504
AU10531   AU        0.500588    0.235882    0.618235     0.007504
PD10532   PD        0.500588    0.265294    0.588824     0.005394
AU10533   AU        0.530000    0.235882    0.588824     0.007504
AU10534   AU        0.530000    0.265294    0.618235     0.007504
PD10535   PD        0.559412    0.235882    0.618235     0.005394
AU10536   AU        0.559412    0.265294    0.588824     0.007504
PD10537   PD        0.588824    0.235882    0.588824     0.005394
PD10538   PD        0.588824    0.265294    0.618235     0.005394
AU10539   AU        0.618235    0.235882    0.618235     0.007504
PD10540   PD        0.618235    0.265294    0.588824     0.005394
PD10541   PD        0.647647    0.235882    0.588824     0.005394
AU10542   AU        0.647647    0.265294    0.618235     0.007504
PD10543   PD        0.677059    0.235882    0.618235     0.005394
PD10544   PD        0.677059    0.265294    0.588824     0.005394
AU10545   AU        0.706471    0.235882    0.588824     0.007504
AU10546   AU        0.706471    0.265294    0.618235     0.007504
PD10548   PD        0.735882    0.265294    0.588824     0.005394
PD10574   PD        0.177059    0.324118    0.618235     0.005394
PD10575   PD        0.206471    0.294706    0.618235     0.005394
PD10576   PD        0.206471    0.324118    0.588824     0.005394
PD10577   PD        0.235882    0.294706    0.588824     0.005394
AU10578   AU        0.235882    0.324118    0.618235     0.007504
PD10579   PD        0.265294    0.294706    0.618235     0.005394
AU10580   AU        0.265294    0.324118    0.588824     0.007504
AU10581   AU        0.294706    0.294706    0.588824     0.007504
AU10582   AU        0.294706    0.324118    0.618235     0.007504
PD10583   PD        0.324118    0.294706    0.618235     0.005394
AU10584   AU        0.324118    0.324118    0.588824     0.007504
PD10585   PD        0.353529    0.294706    0.588824     0.005394
PD10586   PD        0.353529    0.324118    0.618235     0.005394
PD10587   PD        0.382941    0.294706    0.618235     0.005394
PD10588   PD        0.382941    0.324118    0.588824     0.005394
PD10589   PD        0.412353    0.294706    0.588824     0.005394
AU10590   AU        0.412353    0.324118    0.618235     0.007504
AU10591   AU        0.441765    0.294706    0.618235     0.007504
PD10592   PD        0.441765    0.324118    0.588824     0.005394
AU10593   AU        0.471176    0.294706    0.588824     0.007504
AU10594   AU        0.471176    0.324118    0.618235     0.007504
PD10595   PD        0.500588    0.294706    0.618235     0.005394
AU10596   AU        0.500588    0.324118    0.588824     0.007504
PD10597   PD        0.530000    0.294706    0.588824     0.005394
PD10598   PD        0.530000    0.324118    0.618235     0.005394
AU10599   AU        0.559412    0.294706    0.618235     0.007504
AU10600   AU        0.559412    0.324118    0.588824     0.007504
AU10601   AU        0.588824    0.294706    0.588824     0.007504
PD10602   PD        0.588824    0.324118    0.618235     0.005394
AU10603   AU        0.618235    0.294706    0.618235     0.007504
AU10604   AU        0.618235    0.324118    0.588824     0.007504
AU10605   AU        0.647647    0.294706    0.588824     0.007504
AU10606   AU        0.647647    0.324118    0.618235     0.007504
PD10607   PD        0.677059    0.294706    0.618235     0.005394
PD10608   PD        0.677059    0.324118    0.588824     0.005394
AU10609   AU        0.706471    0.294706    0.588824     0.007504
AU10610   AU        0.706471    0.324118    0.618235     0.007504
PD10611   PD        0.735882    0.294706    0.618235     0.005394
PD10612   PD        0.735882    0.324118    0.588824     0.005394
AU10614   AU        0.765294    0.324118    0.618235     0.007504
PD10636   PD        0.147647    0.382941    0.588824     0.005394
AU10637   AU        0.177059    0.353529    0.588824     0.007504
AU10638   AU        0.177059    0.382941    0.618235     0.007504
AU10639   AU        0.206471    0.353529    0.618235     0.007504
AU10640   AU        0.206471    0.382941    0.588824     0.007504
AU10641   AU        0.235882    0.353529    0.588824     0.007504
AU10642   AU        0.235882    0.382941    0.618235     0.007504
AU10643   AU        0.265294    0.353529    0.618235     0.007504
PD10644   PD        0.265294    0.382941    0.588824     0.005394
AU10645   AU        0.294706    0.353529    0.588824     0.007504
PD10646   PD        0.294706    0.382941    0.618235     0.005394
AU10647   AU        0.324118    0.353529    0.618235     0.007504
AU10648   AU        0.324118    0.382941    0.588824     0.007504
PD10649   PD        0.353529    0.353529    0.588824     0.005394
AU10650   AU        0.353529    0.382941    0.618235     0.007504
AU10651   AU        0.382941    0.353529    0.618235     0.007504
AU10652   AU        0.382941    0.382941    0.588824     0.007504
AU10653   AU        0.412353    0.353529    0.588824     0.007504
AU10654   AU        0.412353    0.382941    0.618235     0.007504
AU10655   AU        0.441765    0.353529    0.618235     0.007504
PD10656   PD        0.441765    0.382941    0.588824     0.005394
PD10657   PD        0.471176    0.353529    0.588824     0.005394
AU10658   AU        0.471176    0.382941    0.618235     0.007504
AU10659   AU        0.500588    0.353529    0.618235     0.007504
AU10660   AU        0.500588    0.382941    0.588824     0.007504
PD10661   PD        0.530000    0.353529    0.588824     0.005394
AU10662   AU        0.530000    0.382941    0.618235     0.007504
PD10663   PD        0.559412    0.353529    0.618235     0.005394
AU10664   AU        0.559412    0.382941    0.588824     0.007504
PD10665   PD        0.588824    0.353529    0.588824     0.005394
AU10666   AU        0.588824    0.382941    0.618235     0.007504
AU10667   AU        0.618235    0.353529    0.618235     0.007504
AU10668   AU        0.618235    0.382941    0.588824     0.007504
PD10669   PD        0.647647    0.353529    0.588824     0.005394
PD10670   PD        0.647647    0.382941    0.618235     0.005394
PD10671   PD        0.677059    0.353529    0.618235     0.005394
AU10672   AU        0.677059    0.382941    0.588824     0.007504
PD10673   PD        0.706471    0.353529    0.588824     0.005394
AU10674   AU        0.706471    0.382941    0.618235     0.007504
AU10675   AU        0.735882    0.353529    0.618235     0.007504
PD10676   PD        0.735882    0.382941    0.588824     0.005394
AU10677   AU        0.765294    0.353529    0.588824     0.007504
PD10678   PD        0.765294    0.382941    0.618235     0.005394
PD10680   PD        0.794706    0.382941    0.588824     0.005394
PD10699   PD        0.147647    0.412353    0.618235     0.005394
AU10700   AU        0.147647    0.441765    0.588824     0.007504
AU10701   AU        0.177059    0.412353    0.588824     0.007504
AU10702   AU        0.177059    0.441765    0.618235     0.007504
AU10703   AU        0.206471    0.412353    0.618235     0.007504
AU10704   AU        0.206471    0.441765    0.588824     0.007504
AU10705   AU        0.235882    0.412353    0.588824     0.007504
PD10706   PD        0.235882    0.441765    0.618235     0.005394
PD10707   PD        0.265294    0.412353    0.618235     0.005394
AU10708   AU        0.265294    0.441765    0.588824     0.007504
PD10709   PD        0.294706    0.412353    0.588824     0.005394
PD10710   PD        0.294706    0.441765    0.618235     0.005394
PD10711   PD        0.324118    0.412353    0.618235     0.005394
PD10712   PD        0.324118    0.441765    0.588824     0.005394
AU10713   AU        0.353529    0.412353    0.588824     0.007504
AU10714   AU        0.353529    0.441765    0.618235     0.007504
PD10715   PD        0.382941    0.412353    0.618235     0.005394
AU10716   AU        0.382941    0.441765    0.588824     0.007504
AU10717   AU        0.412353    0.412353    0.588824     0.007504
AU10718   AU        0.412353    0.441765    0.618235     0.007504
AU10719   AU        0.441765    0.412353    0.618235     0.007504
AU10720   AU        0.441765    0.441765    0.588824     0.007504
AU10721   AU        0.471176    0.412353    0.588824     0.007504
PD10722   PD        0.471176    0.441765    0.618235     0.005394
AU10723   AU        0.500588    0.412353    0.618235     0.007504
AU10724   AU        0.500588    0.441765    0.588824     0.007504
AU10725   AU        0.530000    0.412353    0.588824     0.007504
AU10726   AU        0.530000    0.441765    0.618235     0.007504
AU10727   AU        0.559412    0.412353    0.618235     0.007504
AU10728   AU        0.559412    0.441765    0.588824     0.007504
AU10729   AU        0.588824    0.412353    0.588824     0.007504
AU10730   AU        0.588824    0.441765    0.618235     0.007504
AU10731   AU        0.618235    0.412353    0.618235     0.007504
PD10732   PD        0.618235    0.441765    0.588824     0.005394
AU10733   AU        0.647647    0.412353    0.588824     0.007504
AU10734   AU        0.647647    0.441765    0.618235     0.007504
AU10735   AU        0.677059    0.412353    0.618235     0.007504
PD10736   PD        0.677059    0.441765    0.588824     0.005394
AU10737   AU        0.706471    0.412353    0.588824     0.007504
AU10738   AU        0.706471    0.441765    0.618235     0.007504
PD10739   PD        0.735882    0.412353    0.618235     0.005394
PD10740   PD        0.735882    0.441765    0.588824     0.005394
AU10741   AU        0.765294    0.412353    0.588824     0.007504
AU10742   AU        0.765294    0.441765    0.618235     0.007504
AU10743   AU        0.794706    0.412353    0.618235     0.007504
PD10744   PD        0.794706    0.441765    0.588824     0.005394
PD10763   PD        0.147647    0.471176    0.618235     0.005394
PD10764   PD        0.147647    0.500588    0.588824     0.005394
PD10765   PD        0.177059    0.471176    0.588824     0.005394
AU10766   AU        0.177059    0.500588    0.618235     0.007504
AU10767   AU        0.206471    0.471176    0.618235     0.007504
PD10768   PD        0.206471    0.500588    0.588824     0.005394
PD10769   PD        0.235882    0.471176    0.588824     0.005394
AU10770   AU        0.235882    0.500588    0.618235     0.007504
PD10771   PD        0.265294    0.471176    0.618235     0.005394
AU10772   AU        0.265294    0.500588    0.588824     0.007504
AU10773   AU        0.294706    0.471176    0.588824     0.007504
AU10774   AU        0.294706    0.500588    0.618235     0.007504
AU10775   AU        0.324118    0.471176    0.618235     0.007504
AU10776   AU        0.324118    0.500588    0.588824     0.007504
AU10777   AU        0.353529    0.471176    0.588824     0.007504
PD10778   PD        0.353529    0.500588    0.618235     0.005394
AU10779   AU        0.382941    0.471176    0.618235     0.007504
AU10780   AU        0.382941    0.500588    0.588824     0.007504
AU10781   AU        0.412353    0.471176    0.588824     0.007504
PD10782   PD        0.412353    0.500588    0.618235     0.005394
AU10783   AU        0.441765    0.471176    0.618235     0.007504
PD10784   PD        0.441765    0.500588    0.588824     0.005394
AU10785   AU        0.471176    0.471176    0.588824     0.007504
AU10786   AU        0.471176    0.500588    0.618235     0.007504
AU10787   AU        0.500588    0.471176    0.618235     0.007504
AU10788   AU        0.500588    0.500588    0.588824     0.007504
AU10789   AU        0.530000    0.471176    0.588824     0.007504
AU10790   AU        0.530000    0.500588    0.618235     0.007504
AU10791   AU        0.559412    0.471176    0.618235     0.007504
PD10792   PD        0.559412    0.500588    0.588824     0.005394
AU10793   AU        0.588824    0.471176    0.588824     0.007504
PD10794   PD        0.588824    0.500588    0.618235     0.005394
PD10795   PD        0.618235    0.471176    0.618235     0.005394
AU10796   AU        0.618235    0.500588    0.588824     0.007504
PD10797   PD        0.647647    0.471176    0.588824     0.005394
AU10798   AU        0.647647    0.500588    0.618235     0.007504
PD10799   PD        0.677059    0.471176    0.618235     0.005394
AU10800   AU        0.677059    0.500588    0.588824     0.007504
AU10801   AU        0.706471    0.471176    0.588824     0.007504
AU10802   AU        0.706471    0.500588    0.618235     0.007504
AU10803   AU        0.735882    0.471176    0.618235     0.007504
AU10804   AU        0.735882    0.500588    0.588824     0.007504
PD10805   PD        0.765294    0.471176    0.588824     0.005394
AU10806   AU        0.765294    0.500588    0.618235     0.007504
PD10807   PD        0.794706    0.471176    0.618235     0.005394
AU10808   AU        0.794706    0.500588    0.588824     0.007504
AU10827   AU        0.147647    0.530000    0.618235     0.007504
PD10828   PD        0.147647    0.559412    0.588824     0.005394
PD10829   PD        0.177059    0.530000    0.588824     0.005394
PD10830   PD        0.177059    0.559412    0.618235     0.005394
PD10831   PD        0.206471    0.530000    0.618235     0.005394
AU10832   AU        0.206471    0.559412    0.588824     0.007504
AU10833   AU        0.235882    0.530000    0.588824     0.007504
AU10834   AU        0.235882    0.559412    0.618235     0.007504
PD10835   PD        0.265294    0.530000    0.618235     0.005394
PD10836   PD        0.265294    0.559412    0.588824     0.005394
AU10837   AU        0.294706    0.530000    0.588824     0.007504
PD10838   PD        0.294706    0.559412    0.618235     0.005394
AU10839   AU        0.324118    0.530000    0.618235     0.007504
PD10840   PD        0.324118    0.559412    0.588824     0.005394
AU10841   AU        0.353529    0.530000    0.588824     0.007504
PD10842   PD        0.353529    0.559412    0.618235     0.005394
AU10843   AU        0.382941    0.530000    0.618235     0.007504
PD10844   PD        0.382941    0.559412    0.588824     0.005394
AU10845   AU        0.412353    0.530000    0.588824     0.007504
AU10846   AU        0.412353    0.559412    0.618235     0.007504
PD10847   PD        0.441765    0.530000    0.618235     0.005394
AU10848   AU        0.441765    0.559412    0.588824     0.007504
AU10849   AU        0.471176    0.530000    0.588824     0.007504
AU10850   AU        0.471176    0.559412    0.618235     0.007504
PD10851   PD        0.500588    0.530000    0.618235     0.005394
PD10852   PD        0.500588    0.559412    0.588824     0.005394
PD10853   PD        0.530000    0.530000    0.588824     0.005394
AU10854   AU        0.530000    0.559412    0.618235     0.007504
AU10855   AU        0.559412    0.530000    0.618235     0.007504
AU10856   AU        0.559412    0.559412    0.588824     0.007504
PD10857   PD        0.588824    0.530000    0.588824     0.005394
PD10858   PD        0.588824    0.559412    0.618235     0.005394
PD10859   PD        0.618235    0.530000    0.618235     0.005394
PD10860   PD        0.618235    0.559412    0.588824     0.005394
PD10861   PD        0.647647    0.530000    0.588824     0.005394
AU10862   AU        0.647647    0.559412    0.618235     0.007504
AU10863   AU        0.677059    0.530000    0.618235     0.007504
AU10864   AU        0.677059    0.559412    0.588824     0.007504
PD10865   PD        0.706471    0.530000    0.588824     0.005394
AU10866   AU        0.706471    0.559412    0.618235     0.007504
AU10867   AU        0.735882    0.530000    0.618235     0.007504
AU10868   AU        0.735882    0.559412    0.588824     0.007504
AU10869   AU        0.765294    0.530000    0.588824     0.007504
AU10870   AU        0.765294    0.559412    0.618235     0.007504
PD10871   PD        0.794706    0.530000    0.618235     0.005394
AU10872   AU        0.794706    0.559412    0.588824     0.007504
AU10893   AU        0.177059    0.588824    0.588824     0.007504
AU10894   AU        0.177059    0.618235    0.618235     0.007504
PD10895   PD        0.206471    0.588824    0.618235     0.005394
PD10896   PD        0.206471    0.618235    0.588824     0.005394
PD10897   PD        0.235882    0.588824    0.588824     0.005394
PD10898   PD        0.235882    0.618235    0.618235     0.005394
PD10899   PD        0.265294    0.588824    0.618235     0.005394
PD10900   PD        0.265294    0.618235    0.588824     0.005394
AU10901   AU        0.294706    0.588824    0.588824     0.007504
AU10902   AU        0.294706    0.618235    0.618235     0.007504
AU10903   AU        0.324118    0.588824    0.618235     0.007504
AU10904   AU        0.324118    0.618235    0.588824     0.007504
AU10905   AU        0.353529    0.588824    0.588824     0.007504
AU10906   AU        0.353529    0.618235    0.618235     0.007504
PD10907   PD        0.382941    0.588824    0.618235     0.005394
AU10908   AU        0.382941    0.618235    0.588824     0.007504
AU10909   AU        0.412353    0.588824    0.588824     0.007504
PD10910   PD        0.412353    0.618235    0.618235     0.005394
PD10911   PD        0.441765    0.588824    0.618235     0.005394
AU10912   AU        0.441765    0.618235    0.588824     0.007504
AU10913   AU        0.471176    0.588824    0.588824     0.007504
AU10914   AU        0.471176    0.618235    0.618235     0.007504
PD10915   PD        0.500588    0.588824    0.618235     0.005394
PD10916   PD        0.500588    0.618235    0.588824     0.005394
PD10917   PD        0.530000    0.588824    0.588824     0.005394
AU10918   AU        0.530000    0.618235    0.618235     0.007504
AU10919   AU        0.559412    0.588824    0.618235     0.007504
PD10920   PD        0.559412    0.618235    0.588824     0.005394
AU10921   AU        0.588824    0.588824    0.588824     0.007504
PD10922   PD        0.588824    0.618235    0.618235     0.005394
AU10923   AU        0.618235    0.588824    0.618235     0.007504
PD10924   PD        0.618235    0.618235    0.588824     0.005394
AU10925   AU        0.647647    0.588824    0.588824     0.007504
PD10926   PD        0.647647    0.618235    0.618235     0.005394
AU10927   AU        0.677059    0.588824    0.618235     0.007504
AU10928   AU        0.677059    0.618235    0.588824     0.007504
AU10929   AU        0.706471    0.588824    0.588824     0.007504
AU10930   AU        0.706471    0.618235    0.618235     0.007504
AU10931   AU        0.735882    0.588824    0.618235     0.007504
AU10932   AU        0.735882    0.618235    0.588824     0.007504
AU10933   AU        0.765294    0.588824    0.588824     0.007504
PD10934   PD        0.765294    0.618235    0.618235     0.005394
PD10959   PD        0.206471    0.647647    0.618235     0.005394
PD10960   PD        0.206471    0.677059    0.588824     0.005394
PD10961   PD        0.235882    0.647647    0.588824     0.005394
PD10962   PD        0.235882    0.677059    0.618235     0.005394
AU10963   AU        0.265294    0.647647    0.618235     0.007504
PD10964   PD        0.265294    0.677059    0.588824     0.005394
AU10965   AU        0.294706    0.647647    0.588824     0.007504
PD10966   PD        0.294706    0.677059    0.618235     0.005394
PD10967   PD        0.324118    0.647647    0.618235     0.005394
PD10968   PD        0.324118    0.677059    0.588824     0.005394
AU10969   AU        0.353529    0.647647    0.588824     0.007504
PD10970   PD        0.353529    0.677059    0.618235     0.005394
AU10971   AU        0.382941    0.647647    0.618235     0.007504
AU10972   AU        0.382941    0.677059    0.588824     0.007504
PD10973   PD        0.412353    0.647647    0.588824     0.005394
PD10974   PD        0.412353    0.677059    0.618235     0.005394
PD10975   PD        0.441765    0.647647    0.618235     0.005394
PD10976   PD        0.441765    0.677059    0.588824     0.005394
AU10977   AU        0.471176    0.647647    0.588824     0.007504
PD10978   PD        0.471176    0.677059    0.618235     0.005394
PD10979   PD        0.500588    0.647647    0.618235     0.005394
AU10980   AU        0.500588    0.677059    0.588824     0.007504
AU10981   AU        0.530000    0.647647    0.588824     0.007504
AU10982   AU        0.530000    0.677059    0.618235     0.007504
AU10983   AU        0.559412    0.647647    0.618235     0.007504
PD10984   PD        0.559412    0.677059    0.588824     0.005394
PD10985   PD        0.588824    0.647647    0.588824     0.005394
AU10986   AU        0.588824    0.677059    0.618235     0.007504
AU10987   AU        0.618235    0.647647    0.618235     0.007504
AU10988   AU        0.618235    0.677059    0.588824     0.007504
PD10989   PD        0.647647    0.647647    0.588824     0.005394
PD10990   PD        0.647647    0.677059    0.618235     0.005394
PD10991   PD        0.677059    0.647647    0.618235     0.005394
AU10992   AU        0.677059    0.677059    0.588824     0.007504
AU10993   AU        0.706471    0.647647    0.588824     0.007504
PD10994   PD        0.706471    0.677059    0.618235     0.005394
AU10995   AU        0.735882    0.647647    0.618235     0.007504
AU10996   AU        0.735882    0.677059    0.588824     0.007504
PD11025   PD        0.235882    0.706471    0.588824     0.005394
PD11027   PD        0.265294    0.706471    0.618235     0.005394
PD11028   PD        0.265294    0.735882    0.588824     0.005394
AU11029   AU        0.294706    0.706471    0.588824     0.007504
AU11030   AU        0.294706    0.735882    0.618235     0.007504
AU11031   AU        0.324118    0.706471    0.618235     0.007504
PD11032   PD        0.324118    0.735882    0.588824     0.005394
PD11033   PD        0.353529    0.706471    0.588824     0.005394
PD11034   PD        0.353529    0.735882    0.618235     0.005394
PD11035   PD        0.382941    0.706471    0.618235     0.005394
PD11036   PD        0.382941    0.735882    0.588824     0.005394
AU11037   AU        0.412353    0.706471    0.588824     0.007504
PD11038   PD        0.412353    0.735882    0.618235     0.005394
AU11039   AU        0.441765    0.706471    0.618235     0.007504
PD11040   PD        0.441765    0.735882    0.588824     0.005394
AU11041   AU        0.471176    0.706471    0.588824     0.007504
PD11042   PD        0.471176    0.735882    0.618235     0.005394
AU11043   AU        0.500588    0.706471    0.618235     0.007504
PD11044   PD        0.500588    0.735882    0.588824     0.005394
PD11045   PD        0.530000    0.706471    0.588824     0.005394
AU11046   AU        0.530000    0.735882    0.618235     0.007504
PD11047   PD        0.559412    0.706471    0.618235     0.005394
AU11048   AU        0.559412    0.735882    0.588824     0.007504
AU11049   AU        0.588824    0.706471    0.588824     0.007504
AU11050   AU        0.588824    0.735882    0.618235     0.007504
AU11051   AU        0.618235    0.706471    0.618235     0.007504
AU11052   AU        0.618235    0.735882    0.588824     0.007504
PD11053   PD        0.647647    0.706471    0.588824     0.005394
AU11054   AU        0.647647    0.735882    0.618235     0.007504
AU11055   AU        0.677059    0.706471    0.618235     0.007504
PD11056   PD        0.677059    0.735882    0.588824     0.005394
AU11057   AU        0.706471    0.706471    0.588824     0.007504
PD11095   PD        0.324118    0.765294    0.618235     0.005394
PD11097   PD        0.353529    0.765294    0.588824     0.005394
PD11099   PD        0.382941    0.765294    0.618235     0.005394
PD11100   PD        0.382941    0.794706    0.588824     0.005394
AU11101   AU        0.412353    0.765294    0.588824     0.007504
AU11102   AU        0.412353    0.794706    0.618235     0.007504
PD11103   PD        0.441765    0.765294    0.618235     0.005394
AU11104   AU        0.441765    0.794706    0.588824     0.007504
PD11105   PD        0.471176    0.765294    0.588824     0.005394
PD11106   PD        0.471176    0.794706    0.618235     0.005394
PD11107   PD        0.500588    0.765294    0.618235     0.005394
PD11108   PD        0.500588    0.794706    0.588824     0.005394
PD11109   PD        0.530000    0.765294    0.588824     0.005394
PD11110   PD        0.530000    0.794706    0.618235     0.005394
AU11111   AU        0.559412    0.765294    0.618235     0.007504
PD11112   PD        0.559412    0.794706    0.588824     0.005394
AU11113   AU        0.588824    0.765294    0.588824     0.007504
PD11115   PD        0.618235    0.765294    0.618235     0.005394
PD11480   PD        0.324118    0.206471    0.647647     0.005394
AU11482   AU        0.353529    0.206471    0.677059     0.007504
AU11484   AU        0.382941    0.206471    0.647647     0.007504
AU11485   AU        0.412353    0.177059    0.647647     0.007504
PD11486   PD        0.412353    0.206471    0.677059     0.005394
PD11487   PD        0.441765    0.177059    0.677059     0.005394
PD11488   PD        0.441765    0.206471    0.647647     0.005394
AU11489   AU        0.471176    0.177059    0.647647     0.007504
PD11490   PD        0.471176    0.206471    0.677059     0.005394
AU11491   AU        0.500588    0.177059    0.677059     0.007504
AU11492   AU        0.500588    0.206471    0.647647     0.007504
PD11493   PD        0.530000    0.177059    0.647647     0.005394
PD11494   PD        0.530000    0.206471    0.677059     0.005394
AU11496   AU        0.559412    0.206471    0.647647     0.007504
PD11498   PD        0.588824    0.206471    0.677059     0.005394
AU11500   AU        0.618235    0.206471    0.647647     0.007504
PD11540   PD        0.265294    0.265294    0.647647     0.005394
PD11541   PD        0.294706    0.235882    0.647647     0.005394
AU11542   AU        0.294706    0.265294    0.677059     0.007504
PD11543   PD        0.324118    0.235882    0.677059     0.005394
PD11544   PD        0.324118    0.265294    0.647647     0.005394
PD11545   PD        0.353529    0.235882    0.647647     0.005394
PD11546   PD        0.353529    0.265294    0.677059     0.005394
PD11547   PD        0.382941    0.235882    0.677059     0.005394
PD11548   PD        0.382941    0.265294    0.647647     0.005394
PD11549   PD        0.412353    0.235882    0.647647     0.005394
AU11550   AU        0.412353    0.265294    0.677059     0.007504
PD11551   PD        0.441765    0.235882    0.677059     0.005394
PD11552   PD        0.441765    0.265294    0.647647     0.005394
PD11553   PD        0.471176    0.235882    0.647647     0.005394
PD11554   PD        0.471176    0.265294    0.677059     0.005394
AU11555   AU        0.500588    0.235882    0.677059     0.007504
PD11556   PD        0.500588    0.265294    0.647647     0.005394
PD11557   PD        0.530000    0.235882    0.647647     0.005394
PD11558   PD        0.530000    0.265294    0.677059     0.005394
PD11559   PD        0.559412    0.235882    0.677059     0.005394
AU11560   AU        0.559412    0.265294    0.647647     0.007504
AU11561   AU        0.588824    0.235882    0.647647     0.007504
PD11562   PD        0.588824    0.265294    0.677059     0.005394
PD11563   PD        0.618235    0.235882    0.677059     0.005394
PD11564   PD        0.618235    0.265294    0.647647     0.005394
PD11565   PD        0.647647    0.235882    0.647647     0.005394
PD11566   PD        0.647647    0.265294    0.677059     0.005394
AU11568   AU        0.677059    0.265294    0.647647     0.007504
PD11600   PD        0.206471    0.324118    0.647647     0.005394
PD11601   PD        0.235882    0.294706    0.647647     0.005394
PD11602   PD        0.235882    0.324118    0.677059     0.005394
PD11603   PD        0.265294    0.294706    0.677059     0.005394
PD11604   PD        0.265294    0.324118    0.647647     0.005394
AU11605   AU        0.294706    0.294706    0.647647     0.007504
PD11606   PD        0.294706    0.324118    0.677059     0.005394
PD11607   PD        0.324118    0.294706    0.677059     0.005394
PD11608   PD        0.324118    0.324118    0.647647     0.005394
AU11609   AU        0.353529    0.294706    0.647647     0.007504
AU11610   AU        0.353529    0.324118    0.677059     0.007504
PD11611   PD        0.382941    0.294706    0.677059     0.005394
PD11612   PD        0.382941    0.324118    0.647647     0.005394
AU11613   AU        0.412353    0.294706    0.647647     0.007504
PD11614   PD        0.412353    0.324118    0.677059     0.005394
PD11615   PD        0.441765    0.294706    0.677059     0.005394
PD11616   PD        0.441765    0.324118    0.647647     0.005394
AU11617   AU        0.471176    0.294706    0.647647     0.007504
PD11618   PD        0.471176    0.324118    0.677059     0.005394
AU11619   AU        0.500588    0.294706    0.677059     0.007504
AU11620   AU        0.500588    0.324118    0.647647     0.007504
AU11621   AU        0.530000    0.294706    0.647647     0.007504
PD11622   PD        0.530000    0.324118    0.677059     0.005394
AU11623   AU        0.559412    0.294706    0.677059     0.007504
AU11624   AU        0.559412    0.324118    0.647647     0.007504
PD11625   PD        0.588824    0.294706    0.647647     0.005394
AU11626   AU        0.588824    0.324118    0.677059     0.007504
AU11627   AU        0.618235    0.294706    0.677059     0.007504
PD11628   PD        0.618235    0.324118    0.647647     0.005394
PD11629   PD        0.647647    0.294706    0.647647     0.005394
AU11630   AU        0.647647    0.324118    0.677059     0.007504
PD11631   PD        0.677059    0.294706    0.677059     0.005394
PD11632   PD        0.677059    0.324118    0.647647     0.005394
PD11633   PD        0.706471    0.294706    0.647647     0.005394
AU11634   AU        0.706471    0.324118    0.677059     0.007504
PD11636   PD        0.735882    0.324118    0.647647     0.005394
AU11663   AU        0.206471    0.353529    0.677059     0.007504
PD11664   PD        0.206471    0.382941    0.647647     0.005394
PD11665   PD        0.235882    0.353529    0.647647     0.005394
PD11666   PD        0.235882    0.382941    0.677059     0.005394
PD11667   PD        0.265294    0.353529    0.677059     0.005394
AU11668   AU        0.265294    0.382941    0.647647     0.007504
PD11669   PD        0.294706    0.353529    0.647647     0.005394
PD11670   PD        0.294706    0.382941    0.677059     0.005394
AU11671   AU        0.324118    0.353529    0.677059     0.007504
PD11672   PD        0.324118    0.382941    0.647647     0.005394
PD11673   PD        0.353529    0.353529    0.647647     0.005394
PD11674   PD        0.353529    0.382941    0.677059     0.005394
PD11675   PD        0.382941    0.353529    0.677059     0.005394
AU11676   AU        0.382941    0.382941    0.647647     0.007504
PD11677   PD        0.412353    0.353529    0.647647     0.005394
AU11678   AU        0.412353    0.382941    0.677059     0.007504
AU11679   AU        0.441765    0.353529    0.677059     0.007504
AU11680   AU        0.441765    0.382941    0.647647     0.007504
PD11681   PD        0.471176    0.353529    0.647647     0.005394
AU11682   AU        0.471176    0.382941    0.677059     0.007504
AU11683   AU        0.500588    0.353529    0.677059     0.007504
AU11684   AU        0.500588    0.382941    0.647647     0.007504
AU11685   AU        0.530000    0.353529    0.647647     0.007504
AU11686   AU        0.530000    0.382941    0.677059     0.007504
PD11687   PD        0.559412    0.353529    0.677059     0.005394
PD11688   PD        0.559412    0.382941    0.647647     0.005394
PD11689   PD        0.588824    0.353529    0.647647     0.005394
PD11690   PD        0.588824    0.382941    0.677059     0.005394
AU11691   AU        0.618235    0.353529    0.677059     0.007504
AU11692   AU        0.618235    0.382941    0.647647     0.007504
PD11693   PD        0.647647    0.353529    0.647647     0.005394
AU11694   AU        0.647647    0.382941    0.677059     0.007504
AU11695   AU        0.677059    0.353529    0.677059     0.007504
AU11696   AU        0.677059    0.382941    0.647647     0.007504
AU11697   AU        0.706471    0.353529    0.647647     0.007504
PD11698   PD        0.706471    0.382941    0.677059     0.005394
PD11699   PD        0.735882    0.353529    0.677059     0.005394
PD11700   PD        0.735882    0.382941    0.647647     0.005394
AU11725   AU        0.177059    0.412353    0.647647     0.007504
PD11726   PD        0.177059    0.441765    0.677059     0.005394
PD11727   PD        0.206471    0.412353    0.677059     0.005394
PD11728   PD        0.206471    0.441765    0.647647     0.005394
PD11729   PD        0.235882    0.412353    0.647647     0.005394
PD11730   PD        0.235882    0.441765    0.677059     0.005394
PD11731   PD        0.265294    0.412353    0.677059     0.005394
PD11732   PD        0.265294    0.441765    0.647647     0.005394
PD11733   PD        0.294706    0.412353    0.647647     0.005394
PD11734   PD        0.294706    0.441765    0.677059     0.005394
AU11735   AU        0.324118    0.412353    0.677059     0.007504
PD11736   PD        0.324118    0.441765    0.647647     0.005394
AU11737   AU        0.353529    0.412353    0.647647     0.007504
AU11738   AU        0.353529    0.441765    0.677059     0.007504
AU11739   AU        0.382941    0.412353    0.677059     0.007504
AU11740   AU        0.382941    0.441765    0.647647     0.007504
AU11741   AU        0.412353    0.412353    0.647647     0.007504
PD11742   PD        0.412353    0.441765    0.677059     0.005394
PD11743   PD        0.441765    0.412353    0.677059     0.005394
PD11744   PD        0.441765    0.441765    0.647647     0.005394
AU11745   AU        0.471176    0.412353    0.647647     0.007504
AU11746   AU        0.471176    0.441765    0.677059     0.007504
AU11747   AU        0.500588    0.412353    0.677059     0.007504
PD11748   PD        0.500588    0.441765    0.647647     0.005394
AU11749   AU        0.530000    0.412353    0.647647     0.007504
AU11750   AU        0.530000    0.441765    0.677059     0.007504
PD11751   PD        0.559412    0.412353    0.677059     0.005394
AU11752   AU        0.559412    0.441765    0.647647     0.007504
AU11753   AU        0.588824    0.412353    0.647647     0.007504
AU11754   AU        0.588824    0.441765    0.677059     0.007504
PD11755   PD        0.618235    0.412353    0.677059     0.005394
AU11756   AU        0.618235    0.441765    0.647647     0.007504
AU11757   AU        0.647647    0.412353    0.647647     0.007504
PD11758   PD        0.647647    0.441765    0.677059     0.005394
AU11759   AU        0.677059    0.412353    0.677059     0.007504
PD11760   PD        0.677059    0.441765    0.647647     0.005394
PD11761   PD        0.706471    0.412353    0.647647     0.005394
AU11762   AU        0.706471    0.441765    0.677059     0.007504
PD11763   PD        0.735882    0.412353    0.677059     0.005394
PD11764   PD        0.735882    0.441765    0.647647     0.005394
PD11765   PD        0.765294    0.412353    0.647647     0.005394
AU11766   AU        0.765294    0.441765    0.677059     0.007504
PD11789   PD        0.177059    0.471176    0.647647     0.005394
PD11790   PD        0.177059    0.500588    0.677059     0.005394
PD11791   PD        0.206471    0.471176    0.677059     0.005394
PD11792   PD        0.206471    0.500588    0.647647     0.005394
PD11793   PD        0.235882    0.471176    0.647647     0.005394
PD11794   PD        0.235882    0.500588    0.677059     0.005394
PD11795   PD        0.265294    0.471176    0.677059     0.005394
AU11796   AU        0.265294    0.500588    0.647647     0.007504
PD11797   PD        0.294706    0.471176    0.647647     0.005394
PD11798   PD        0.294706    0.500588    0.677059     0.005394
PD11799   PD        0.324118    0.471176    0.677059     0.005394
AU11800   AU        0.324118    0.500588    0.647647     0.007504
AU11801   AU        0.353529    0.471176    0.647647     0.007504
AU11802   AU        0.353529    0.500588    0.677059     0.007504
AU11803   AU        0.382941    0.471176    0.677059     0.007504
AU11804   AU        0.382941    0.500588    0.647647     0.007504
AU11805   AU        0.412353    0.471176    0.647647     0.007504
PD11806   PD        0.412353    0.500588    0.677059     0.005394
AU11807   AU        0.441765    0.471176    0.677059     0.007504
AU11808   AU        0.441765    0.500588    0.647647     0.007504
PD11809   PD        0.471176    0.471176    0.647647     0.005394
PD11810   PD        0.471176    0.500588    0.677059     0.005394
AU11811   AU        0.500588    0.471176    0.677059     0.007504
AU11812   AU        0.500588    0.500588    0.647647     0.007504
AU11813   AU        0.530000    0.471176    0.647647     0.007504
PD11814   PD        0.530000    0.500588    0.677059     0.005394
AU11815   AU        0.559412    0.471176    0.677059     0.007504
PD11816   PD        0.559412    0.500588    0.647647     0.005394
PD11817   PD        0.588824    0.471176    0.647647     0.005394
PD11818   PD        0.588824    0.500588    0.677059     0.005394
PD11819   PD        0.618235    0.471176    0.677059     0.005394
AU11820   AU        0.618235    0.500588    0.647647     0.007504
AU11821   AU        0.647647    0.471176    0.647647     0.007504
AU11822   AU        0.647647    0.500588    0.677059     0.007504
PD11823   PD        0.677059    0.471176    0.677059     0.005394
PD11824   PD        0.677059    0.500588    0.647647     0.005394
PD11825   PD        0.706471    0.471176    0.647647     0.005394
AU11826   AU        0.706471    0.500588    0.677059     0.007504
AU11827   AU        0.735882    0.471176    0.677059     0.007504
AU11828   AU        0.735882    0.500588    0.647647     0.007504
PD11829   PD        0.765294    0.471176    0.647647     0.005394
AU11830   AU        0.765294    0.500588    0.677059     0.007504
AU11853   AU        0.177059    0.530000    0.647647     0.007504
PD11855   PD        0.206471    0.530000    0.677059     0.005394
PD11856   PD        0.206471    0.559412    0.647647     0.005394
AU11857   AU        0.235882    0.530000    0.647647     0.007504
AU11858   AU        0.235882    0.559412    0.677059     0.007504
AU11859   AU        0.265294    0.530000    0.677059     0.007504
AU11860   AU        0.265294    0.559412    0.647647     0.007504
PD11861   PD        0.294706    0.530000    0.647647     0.005394
PD11862   PD        0.294706    0.559412    0.677059     0.005394
AU11863   AU        0.324118    0.530000    0.677059     0.007504
PD11864   PD        0.324118    0.559412    0.647647     0.005394
PD11865   PD        0.353529    0.530000    0.647647     0.005394
AU11866   AU        0.353529    0.559412    0.677059     0.007504
AU11867   AU        0.382941    0.530000    0.677059     0.007504
AU11868   AU        0.382941    0.559412    0.647647     0.007504
AU11869   AU        0.412353    0.530000    0.647647     0.007504
AU11870   AU        0.412353    0.559412    0.677059     0.007504
AU11871   AU        0.441765    0.530000    0.677059     0.007504
AU11872   AU        0.441765    0.559412    0.647647     0.007504
AU11873   AU        0.471176    0.530000    0.647647     0.007504
PD11874   PD        0.471176    0.559412    0.677059     0.005394
AU11875   AU        0.500588    0.530000    0.677059     0.007504
AU11876   AU        0.500588    0.559412    0.647647     0.007504
AU11877   AU        0.530000    0.530000    0.647647     0.007504
PD11878   PD        0.530000    0.559412    0.677059     0.005394
AU11879   AU        0.559412    0.530000    0.677059     0.007504
AU11880   AU        0.559412    0.559412    0.647647     0.007504
AU11881   AU        0.588824    0.530000    0.647647     0.007504
AU11882   AU        0.588824    0.559412    0.677059     0.007504
AU11883   AU        0.618235    0.530000    0.677059     0.007504
PD11884   PD        0.618235    0.559412    0.647647     0.005394
PD11885   PD        0.647647    0.530000    0.647647     0.005394
AU11886   AU        0.647647    0.559412    0.677059     0.007504
PD11887   PD        0.677059    0.530000    0.677059     0.005394
PD11888   PD        0.677059    0.559412    0.647647     0.005394
AU11889   AU        0.706471    0.530000    0.647647     0.007504
PD11890   PD        0.706471    0.559412    0.677059     0.005394
PD11891   PD        0.735882    0.530000    0.677059     0.005394
PD11892   PD        0.735882    0.559412    0.647647     0.005394
AU11893   AU        0.765294    0.530000    0.647647     0.007504
PD11919   PD        0.206471    0.588824    0.677059     0.005394
AU11920   AU        0.206471    0.618235    0.647647     0.007504
PD11921   PD        0.235882    0.588824    0.647647     0.005394
PD11922   PD        0.235882    0.618235    0.677059     0.005394
PD11923   PD        0.265294    0.588824    0.677059     0.005394
AU11924   AU        0.265294    0.618235    0.647647     0.007504
AU11925   AU        0.294706    0.588824    0.647647     0.007504
PD11926   PD        0.294706    0.618235    0.677059     0.005394
PD11927   PD        0.324118    0.588824    0.677059     0.005394
PD11928   PD        0.324118    0.618235    0.647647     0.005394
PD11929   PD        0.353529    0.588824    0.647647     0.005394
PD11930   PD        0.353529    0.618235    0.677059     0.005394
AU11931   AU        0.382941    0.588824    0.677059     0.007504
AU11932   AU        0.382941    0.618235    0.647647     0.007504
PD11933   PD        0.412353    0.588824    0.647647     0.005394
AU11934   AU        0.412353    0.618235    0.677059     0.007504
AU11935   AU        0.441765    0.588824    0.677059     0.007504
AU11936   AU        0.441765    0.618235    0.647647     0.007504
PD11937   PD        0.471176    0.588824    0.647647     0.005394
AU11938   AU        0.471176    0.618235    0.677059     0.007504
AU11939   AU        0.500588    0.588824    0.677059     0.007504
AU11940   AU        0.500588    0.618235    0.647647     0.007504
PD11941   PD        0.530000    0.588824    0.647647     0.005394
AU11942   AU        0.530000    0.618235    0.677059     0.007504
PD11943   PD        0.559412    0.588824    0.677059     0.005394
AU11944   AU        0.559412    0.618235    0.647647     0.007504
PD11945   PD        0.588824    0.588824    0.647647     0.005394
PD11946   PD        0.588824    0.618235    0.677059     0.005394
AU11947   AU        0.618235    0.588824    0.677059     0.007504
PD11948   PD        0.618235    0.618235    0.647647     0.005394
AU11949   AU        0.647647    0.588824    0.647647     0.007504
PD11950   PD        0.647647    0.618235    0.677059     0.005394
PD11951   PD        0.677059    0.588824    0.677059     0.005394
PD11952   PD        0.677059    0.618235    0.647647     0.005394
PD11953   PD        0.706471    0.588824    0.647647     0.005394
AU11954   AU        0.706471    0.618235    0.677059     0.007504
AU11955   AU        0.735882    0.588824    0.677059     0.007504
PD11956   PD        0.735882    0.618235    0.647647     0.005394
AU11985   AU        0.235882    0.647647    0.647647     0.007504
PD11987   PD        0.265294    0.647647    0.677059     0.005394
AU11988   AU        0.265294    0.677059    0.647647     0.007504
AU11989   AU        0.294706    0.647647    0.647647     0.007504
AU11990   AU        0.294706    0.677059    0.677059     0.007504
PD11991   PD        0.324118    0.647647    0.677059     0.005394
PD11992   PD        0.324118    0.677059    0.647647     0.005394
AU11993   AU        0.353529    0.647647    0.647647     0.007504
AU11994   AU        0.353529    0.677059    0.677059     0.007504
AU11995   AU        0.382941    0.647647    0.677059     0.007504
PD11996   PD        0.382941    0.677059    0.647647     0.005394
PD11997   PD        0.412353    0.647647    0.647647     0.005394
PD11998   PD        0.412353    0.677059    0.677059     0.005394
AU11999   AU        0.441765    0.647647    0.677059     0.007504
AU12000   AU        0.441765    0.677059    0.647647     0.007504
PD12001   PD        0.471176    0.647647    0.647647     0.005394
PD12002   PD        0.471176    0.677059    0.677059     0.005394
AU12003   AU        0.500588    0.647647    0.677059     0.007504
AU12004   AU        0.500588    0.677059    0.647647     0.007504
PD12005   PD        0.530000    0.647647    0.647647     0.005394
AU12006   AU        0.530000    0.677059    0.677059     0.007504
PD12007   PD        0.559412    0.647647    0.677059     0.005394
AU12008   AU        0.559412    0.677059    0.647647     0.007504
PD12009   PD        0.588824    0.647647    0.647647     0.005394
PD12010   PD        0.588824    0.677059    0.677059     0.005394
AU12011   AU        0.618235    0.647647    0.677059     0.007504
AU12012   AU        0.618235    0.677059    0.647647     0.007504
PD12013   PD        0.647647    0.647647    0.647647     0.005394
PD12014   PD        0.647647    0.677059    0.677059     0.005394
AU12015   AU        0.677059    0.647647    0.677059     0.007504
PD12016   PD        0.677059    0.677059    0.647647     0.005394
AU12017   AU        0.706471    0.647647    0.647647     0.007504
PD12053   PD        0.294706    0.706471    0.647647     0.005394
AU12055   AU        0.324118    0.706471    0.677059     0.007504
PD12056   PD        0.324118    0.735882    0.647647     0.005394
PD12057   PD        0.353529    0.706471    0.647647     0.005394
PD12058   PD        0.353529    0.735882    0.677059     0.005394
AU12059   AU        0.382941    0.706471    0.677059     0.007504
PD12060   PD        0.382941    0.735882    0.647647     0.005394
PD12061   PD        0.412353    0.706471    0.647647     0.005394
PD12062   PD        0.412353    0.735882    0.677059     0.005394
AU12063   AU        0.441765    0.706471    0.677059     0.007504
AU12064   AU        0.441765    0.735882    0.647647     0.007504
AU12065   AU        0.471176    0.706471    0.647647     0.007504
PD12066   PD        0.471176    0.735882    0.677059     0.005394
AU12067   AU        0.500588    0.706471    0.677059     0.007504
AU12068   AU        0.500588    0.735882    0.647647     0.007504
PD12069   PD        0.530000    0.706471    0.647647     0.005394
AU12070   AU        0.530000    0.735882    0.677059     0.007504
PD12071   PD        0.559412    0.706471    0.677059     0.005394
PD12072   PD        0.559412    0.735882    0.647647     0.005394
PD12073   PD        0.588824    0.706471    0.647647     0.005394
PD12074   PD        0.588824    0.735882    0.677059     0.005394
PD12075   PD        0.618235    0.706471    0.677059     0.005394
PD12076   PD        0.618235    0.735882    0.647647     0.005394
PD12077   PD        0.647647    0.706471    0.647647     0.005394
AU12125   AU        0.412353    0.765294    0.647647     0.007504
PD12127   PD        0.441765    0.765294    0.677059     0.005394
PD12129   PD        0.471176    0.765294    0.647647     0.005394
PD12131   PD        0.500588    0.765294    0.677059     0.005394
AU12133   AU        0.530000    0.765294    0.647647     0.007504
AU12512   AU        0.441765    0.206471    0.706471     0.007504
PD12516   PD        0.500588    0.206471    0.706471     0.005394
AU12568   AU        0.324118    0.265294    0.706471     0.007504
PD12569   PD        0.353529    0.235882    0.706471     0.005394
AU12570   AU        0.353529    0.265294    0.735882     0.007504
AU12572   AU        0.382941    0.265294    0.706471     0.007504
AU12573   AU        0.412353    0.235882    0.706471     0.007504
AU12574   AU        0.412353    0.265294    0.735882     0.007504
PD12575   PD        0.441765    0.235882    0.735882     0.005394
AU12576   AU        0.441765    0.265294    0.706471     0.007504
PD12577   PD        0.471176    0.235882    0.706471     0.005394
PD12578   PD        0.471176    0.265294    0.735882     0.005394
PD12579   PD        0.500588    0.235882    0.735882     0.005394
AU12580   AU        0.500588    0.265294    0.706471     0.007504
AU12581   AU        0.530000    0.235882    0.706471     0.007504
AU12582   AU        0.530000    0.265294    0.735882     0.007504
AU12584   AU        0.559412    0.265294    0.706471     0.007504
PD12585   PD        0.588824    0.235882    0.706471     0.005394
PD12586   PD        0.588824    0.265294    0.735882     0.005394
AU12588   AU        0.618235    0.265294    0.706471     0.007504
PD12628   PD        0.265294    0.324118    0.706471     0.005394
PD12629   PD        0.294706    0.294706    0.706471     0.005394
AU12630   AU        0.294706    0.324118    0.735882     0.007504
PD12631   PD        0.324118    0.294706    0.735882     0.005394
PD12632   PD        0.324118    0.324118    0.706471     0.005394
PD12633   PD        0.353529    0.294706    0.706471     0.005394
PD12634   PD        0.353529    0.324118    0.735882     0.005394
PD12635   PD        0.382941    0.294706    0.735882     0.005394
PD12636   PD        0.382941    0.324118    0.706471     0.005394
PD12637   PD        0.412353    0.294706    0.706471     0.005394
PD12638   PD        0.412353    0.324118    0.735882     0.005394
PD12639   PD        0.441765    0.294706    0.735882     0.005394
PD12640   PD        0.441765    0.324118    0.706471     0.005394
PD12641   PD        0.471176    0.294706    0.706471     0.005394
PD12642   PD        0.471176    0.324118    0.735882     0.005394
PD12643   PD        0.500588    0.294706    0.735882     0.005394
PD12644   PD        0.500588    0.324118    0.706471     0.005394
PD12645   PD        0.530000    0.294706    0.706471     0.005394
AU12646   AU        0.530000    0.324118    0.735882     0.007504
PD12647   PD        0.559412    0.294706    0.735882     0.005394
AU12648   AU        0.559412    0.324118    0.706471     0.007504
PD12649   PD        0.588824    0.294706    0.706471     0.005394
AU12650   AU        0.588824    0.324118    0.735882     0.007504
AU12651   AU        0.618235    0.294706    0.735882     0.007504
AU12652   AU        0.618235    0.324118    0.706471     0.007504
PD12653   PD        0.647647    0.294706    0.706471     0.005394
AU12654   AU        0.647647    0.324118    0.735882     0.007504
PD12656   PD        0.677059    0.324118    0.706471     0.005394
AU12689   AU        0.235882    0.353529    0.706471     0.007504
PD12691   PD        0.265294    0.353529    0.735882     0.005394
AU12692   AU        0.265294    0.382941    0.706471     0.007504
AU12693   AU        0.294706    0.353529    0.706471     0.007504
PD12694   PD        0.294706    0.382941    0.735882     0.005394
PD12695   PD        0.324118    0.353529    0.735882     0.005394
PD12696   PD        0.324118    0.382941    0.706471     0.005394
PD12697   PD        0.353529    0.353529    0.706471     0.005394
PD12698   PD        0.353529    0.382941    0.735882     0.005394
PD12699   PD        0.382941    0.353529    0.735882     0.005394
PD12700   PD        0.382941    0.382941    0.706471     0.005394
PD12701   PD        0.412353    0.353529    0.706471     0.005394
PD12702   PD        0.412353    0.382941    0.735882     0.005394
PD12703   PD        0.441765    0.353529    0.735882     0.005394
AU12704   AU        0.441765    0.382941    0.706471     0.007504
PD12705   PD        0.471176    0.353529    0.706471     0.005394
AU12706   AU        0.471176    0.382941    0.735882     0.007504
AU12707   AU        0.500588    0.353529    0.735882     0.007504
AU12708   AU        0.500588    0.382941    0.706471     0.007504
PD12709   PD        0.530000    0.353529    0.706471     0.005394
PD12710   PD        0.530000    0.382941    0.735882     0.005394
PD12711   PD        0.559412    0.353529    0.735882     0.005394
AU12712   AU        0.559412    0.382941    0.706471     0.007504
PD12713   PD        0.588824    0.353529    0.706471     0.005394
AU12714   AU        0.588824    0.382941    0.735882     0.007504
PD12715   PD        0.618235    0.353529    0.735882     0.005394
PD12716   PD        0.618235    0.382941    0.706471     0.005394
AU12717   AU        0.647647    0.353529    0.706471     0.007504
AU12718   AU        0.647647    0.382941    0.735882     0.007504
PD12719   PD        0.677059    0.353529    0.735882     0.005394
PD12720   PD        0.677059    0.382941    0.706471     0.005394
PD12721   PD        0.706471    0.353529    0.706471     0.005394
AU12752   AU        0.206471    0.441765    0.706471     0.007504
PD12753   PD        0.235882    0.412353    0.706471     0.005394
PD12754   PD        0.235882    0.441765    0.735882     0.005394
AU12755   AU        0.265294    0.412353    0.735882     0.007504
PD12756   PD        0.265294    0.441765    0.706471     0.005394
AU12757   AU        0.294706    0.412353    0.706471     0.007504
PD12758   PD        0.294706    0.441765    0.735882     0.005394
PD12759   PD        0.324118    0.412353    0.735882     0.005394
AU12760   AU        0.324118    0.441765    0.706471     0.007504
AU12761   AU        0.353529    0.412353    0.706471     0.007504
AU12762   AU        0.353529    0.441765    0.735882     0.007504
AU12763   AU        0.382941    0.412353    0.735882     0.007504
PD12764   PD        0.382941    0.441765    0.706471     0.005394
AU12765   AU        0.412353    0.412353    0.706471     0.007504
AU12766   AU        0.412353    0.441765    0.735882     0.007504
PD12767   PD        0.441765    0.412353    0.735882     0.005394
AU12768   AU        0.441765    0.441765    0.706471     0.007504
AU12769   AU        0.471176    0.412353    0.706471     0.007504
PD12770   PD        0.471176    0.441765    0.735882     0.005394
PD12771   PD        0.500588    0.412353    0.735882     0.005394
PD12772   PD        0.500588    0.441765    0.706471     0.005394
AU12773   AU        0.530000    0.412353    0.706471     0.007504
PD12774   PD        0.530000    0.441765    0.735882     0.005394
PD12775   PD        0.559412    0.412353    0.735882     0.005394
AU12776   AU        0.559412    0.441765    0.706471     0.007504
PD12777   PD        0.588824    0.412353    0.706471     0.005394
PD12778   PD        0.588824    0.441765    0.735882     0.005394
AU12779   AU        0.618235    0.412353    0.735882     0.007504
PD12780   PD        0.618235    0.441765    0.706471     0.005394
AU12781   AU        0.647647    0.412353    0.706471     0.007504
AU12782   AU        0.647647    0.441765    0.735882     0.007504
PD12783   PD        0.677059    0.412353    0.735882     0.005394
PD12784   PD        0.677059    0.441765    0.706471     0.005394
PD12785   PD        0.706471    0.412353    0.706471     0.005394
AU12786   AU        0.706471    0.441765    0.735882     0.007504
AU12788   AU        0.735882    0.441765    0.706471     0.007504
AU12816   AU        0.206471    0.500588    0.706471     0.007504
AU12817   AU        0.235882    0.471176    0.706471     0.007504
AU12818   AU        0.235882    0.500588    0.735882     0.007504
PD12819   PD        0.265294    0.471176    0.735882     0.005394
AU12820   AU        0.265294    0.500588    0.706471     0.007504
AU12821   AU        0.294706    0.471176    0.706471     0.007504
PD12822   PD        0.294706    0.500588    0.735882     0.005394
AU12823   AU        0.324118    0.471176    0.735882     0.007504
PD12824   PD        0.324118    0.500588    0.706471     0.005394
AU12825   AU        0.353529    0.471176    0.706471     0.007504
AU12826   AU        0.353529    0.500588    0.735882     0.007504
PD12827   PD        0.382941    0.471176    0.735882     0.005394
PD12828   PD        0.382941    0.500588    0.706471     0.005394
AU12829   AU        0.412353    0.471176    0.706471     0.007504
AU12830   AU        0.412353    0.500588    0.735882     0.007504
AU12831   AU        0.441765    0.471176    0.735882     0.007504
AU12832   AU        0.441765    0.500588    0.706471     0.007504
AU12833   AU        0.471176    0.471176    0.706471     0.007504
PD12834   PD        0.471176    0.500588    0.735882     0.005394
AU12835   AU        0.500588    0.471176    0.735882     0.007504
AU12836   AU        0.500588    0.500588    0.706471     0.007504
PD12837   PD        0.530000    0.471176    0.706471     0.005394
PD12838   PD        0.530000    0.500588    0.735882     0.005394
PD12839   PD        0.559412    0.471176    0.735882     0.005394
AU12840   AU        0.559412    0.500588    0.706471     0.007504
PD12841   PD        0.588824    0.471176    0.706471     0.005394
AU12842   AU        0.588824    0.500588    0.735882     0.007504
PD12843   PD        0.618235    0.471176    0.735882     0.005394
AU12844   AU        0.618235    0.500588    0.706471     0.007504
PD12845   PD        0.647647    0.471176    0.706471     0.005394
AU12846   AU        0.647647    0.500588    0.735882     0.007504
AU12847   AU        0.677059    0.471176    0.735882     0.007504
PD12848   PD        0.677059    0.500588    0.706471     0.005394
AU12849   AU        0.706471    0.471176    0.706471     0.007504
AU12850   AU        0.706471    0.500588    0.735882     0.007504
AU12852   AU        0.735882    0.500588    0.706471     0.007504
AU12881   AU        0.235882    0.530000    0.706471     0.007504
PD12883   PD        0.265294    0.530000    0.735882     0.005394
AU12884   AU        0.265294    0.559412    0.706471     0.007504
PD12885   PD        0.294706    0.530000    0.706471     0.005394
AU12886   AU        0.294706    0.559412    0.735882     0.007504
PD12887   PD        0.324118    0.530000    0.735882     0.005394
PD12888   PD        0.324118    0.559412    0.706471     0.005394
PD12889   PD        0.353529    0.530000    0.706471     0.005394
PD12890   PD        0.353529    0.559412    0.735882     0.005394
PD12891   PD        0.382941    0.530000    0.735882     0.005394
PD12892   PD        0.382941    0.559412    0.706471     0.005394
PD12893   PD        0.412353    0.530000    0.706471     0.005394
PD12894   PD        0.412353    0.559412    0.735882     0.005394
AU12895   AU        0.441765    0.530000    0.735882     0.007504
AU12896   AU        0.441765    0.559412    0.706471     0.007504
AU12897   AU        0.471176    0.530000    0.706471     0.007504
PD12898   PD        0.471176    0.559412    0.735882     0.005394
AU12899   AU        0.500588    0.530000    0.735882     0.007504
AU12900   AU        0.500588    0.559412    0.706471     0.007504
AU12901   AU        0.530000    0.530000    0.706471     0.007504
AU12902   AU        0.530000    0.559412    0.735882     0.007504
PD12903   PD        0.559412    0.530000    0.735882     0.005394
PD12904   PD        0.559412    0.559412    0.706471     0.005394
PD12905   PD        0.588824    0.530000    0.706471     0.005394
PD12906   PD        0.588824    0.559412    0.735882     0.005394
PD12907   PD        0.618235    0.530000    0.735882     0.005394
PD12908   PD        0.618235    0.559412    0.706471     0.005394
PD12909   PD        0.647647    0.530000    0.706471     0.005394
PD12910   PD        0.647647    0.559412    0.735882     0.005394
AU12911   AU        0.677059    0.530000    0.735882     0.007504
PD12912   PD        0.677059    0.559412    0.706471     0.005394
AU12913   AU        0.706471    0.530000    0.706471     0.007504
AU12945   AU        0.235882    0.588824    0.706471     0.007504
PD12947   PD        0.265294    0.588824    0.735882     0.005394
PD12948   PD        0.265294    0.618235    0.706471     0.005394
PD12949   PD        0.294706    0.588824    0.706471     0.005394
AU12950   AU        0.294706    0.618235    0.735882     0.007504
PD12951   PD        0.324118    0.588824    0.735882     0.005394
PD12952   PD        0.324118    0.618235    0.706471     0.005394
AU12953   AU        0.353529    0.588824    0.706471     0.007504
AU12954   AU        0.353529    0.618235    0.735882     0.007504
AU12955   AU        0.382941    0.588824    0.735882     0.007504
PD12956   PD        0.382941    0.618235    0.706471     0.005394
PD12957   PD        0.412353    0.588824    0.706471     0.005394
PD12958   PD        0.412353    0.618235    0.735882     0.005394
PD12959   PD        0.441765    0.588824    0.735882     0.005394
AU12960   AU        0.441765    0.618235    0.706471     0.007504
AU12961   AU        0.471176    0.588824    0.706471     0.007504
PD12962   PD        0.471176    0.618235    0.735882     0.005394
AU12963   AU        0.500588    0.588824    0.735882     0.007504
PD12964   PD        0.500588    0.618235    0.706471     0.005394
AU12965   AU        0.530000    0.588824    0.706471     0.007504
AU12966   AU        0.530000    0.618235    0.735882     0.007504
AU12967   AU        0.559412    0.588824    0.735882     0.007504
AU12968   AU        0.559412    0.618235    0.706471     0.007504
AU12969   AU        0.588824    0.588824    0.706471     0.007504
AU12970   AU        0.588824    0.618235    0.735882     0.007504
PD12971   PD        0.618235    0.588824    0.735882     0.005394
PD12972   PD        0.618235    0.618235    0.706471     0.005394
AU12973   AU        0.647647    0.588824    0.706471     0.007504
AU12974   AU        0.647647    0.618235    0.735882     0.007504
PD12975   PD        0.677059    0.588824    0.735882     0.005394
PD12976   PD        0.677059    0.618235    0.706471     0.005394
PD12977   PD        0.706471    0.588824    0.706471     0.005394
PD13013   PD        0.294706    0.647647    0.706471     0.005394
AU13015   AU        0.324118    0.647647    0.735882     0.007504
AU13016   AU        0.324118    0.677059    0.706471     0.007504
AU13017   AU        0.353529    0.647647    0.706471     0.007504
AU13018   AU        0.353529    0.677059    0.735882     0.007504
AU13019   AU        0.382941    0.647647    0.735882     0.007504
AU13020   AU        0.382941    0.677059    0.706471     0.007504
PD13021   PD        0.412353    0.647647    0.706471     0.005394
PD13022   PD        0.412353    0.677059    0.735882     0.005394
PD13023   PD        0.441765    0.647647    0.735882     0.005394
PD13024   PD        0.441765    0.677059    0.706471     0.005394
PD13025   PD        0.471176    0.647647    0.706471     0.005394
PD13026   PD        0.471176    0.677059    0.735882     0.005394
PD13027   PD        0.500588    0.647647    0.735882     0.005394
PD13028   PD        0.500588    0.677059    0.706471     0.005394
PD13029   PD        0.530000    0.647647    0.706471     0.005394
PD13030   PD        0.530000    0.677059    0.735882     0.005394
AU13031   AU        0.559412    0.647647    0.735882     0.007504
AU13032   AU        0.559412    0.677059    0.706471     0.007504
PD13033   PD        0.588824    0.647647    0.706471     0.005394
AU13034   AU        0.588824    0.677059    0.735882     0.007504
PD13035   PD        0.618235    0.647647    0.735882     0.005394
AU13036   AU        0.618235    0.677059    0.706471     0.007504
AU13037   AU        0.647647    0.647647    0.706471     0.007504
AU13081   AU        0.353529    0.706471    0.706471     0.007504
PD13085   PD        0.412353    0.706471    0.706471     0.005394
PD13087   PD        0.441765    0.706471    0.735882     0.005394
PD13088   PD        0.441765    0.735882    0.706471     0.005394
AU13089   AU        0.471176    0.706471    0.706471     0.007504
AU13091   AU        0.500588    0.706471    0.735882     0.007504
AU13092   AU        0.500588    0.735882    0.706471     0.007504
AU13093   AU        0.530000    0.706471    0.706471     0.007504
PD13097   PD        0.588824    0.706471    0.706471     0.005394
PD13600   PD        0.441765    0.265294    0.765294     0.005394
PD13604   PD        0.500588    0.265294    0.765294     0.005394
AU13656   AU        0.324118    0.324118    0.765294     0.007504
PD13660   PD        0.382941    0.324118    0.765294     0.005394
AU13661   AU        0.412353    0.294706    0.765294     0.007504
PD13662   PD        0.412353    0.324118    0.794706     0.005394
AU13664   AU        0.441765    0.324118    0.765294     0.007504
PD13665   PD        0.471176    0.294706    0.765294     0.005394
PD13666   PD        0.471176    0.324118    0.794706     0.005394
PD13668   PD        0.500588    0.324118    0.765294     0.005394
PD13669   PD        0.530000    0.294706    0.765294     0.005394
AU13670   AU        0.530000    0.324118    0.794706     0.007504
AU13672   AU        0.559412    0.324118    0.765294     0.007504
AU13676   AU        0.618235    0.324118    0.765294     0.007504
AU13720   AU        0.324118    0.382941    0.765294     0.007504
PD13721   PD        0.353529    0.353529    0.765294     0.005394
AU13722   AU        0.353529    0.382941    0.794706     0.007504
PD13723   PD        0.382941    0.353529    0.794706     0.005394
PD13724   PD        0.382941    0.382941    0.765294     0.005394
PD13725   PD        0.412353    0.353529    0.765294     0.005394
AU13726   AU        0.412353    0.382941    0.794706     0.007504
PD13727   PD        0.441765    0.353529    0.794706     0.005394
AU13728   AU        0.441765    0.382941    0.765294     0.007504
PD13729   PD        0.471176    0.353529    0.765294     0.005394
PD13730   PD        0.471176    0.382941    0.794706     0.005394
AU13731   AU        0.500588    0.353529    0.794706     0.007504
PD13732   PD        0.500588    0.382941    0.765294     0.005394
PD13733   PD        0.530000    0.353529    0.765294     0.005394
PD13734   PD        0.530000    0.382941    0.794706     0.005394
AU13735   AU        0.559412    0.353529    0.794706     0.007504
AU13736   AU        0.559412    0.382941    0.765294     0.007504
PD13737   PD        0.588824    0.353529    0.765294     0.005394
AU13738   AU        0.588824    0.382941    0.794706     0.007504
PD13740   PD        0.618235    0.382941    0.765294     0.005394
PD13780   PD        0.265294    0.441765    0.765294     0.005394
AU13781   AU        0.294706    0.412353    0.765294     0.007504
AU13783   AU        0.324118    0.412353    0.794706     0.007504
PD13784   PD        0.324118    0.441765    0.765294     0.005394
AU13785   AU        0.353529    0.412353    0.765294     0.007504
PD13786   PD        0.353529    0.441765    0.794706     0.005394
PD13787   PD        0.382941    0.412353    0.794706     0.005394
AU13788   AU        0.382941    0.441765    0.765294     0.007504
PD13789   PD        0.412353    0.412353    0.765294     0.005394
PD13790   PD        0.412353    0.441765    0.794706     0.005394
PD13791   PD        0.441765    0.412353    0.794706     0.005394
PD13792   PD        0.441765    0.441765    0.765294     0.005394
PD13793   PD        0.471176    0.412353    0.765294     0.005394
AU13794   AU        0.471176    0.441765    0.794706     0.007504
AU13795   AU        0.500588    0.412353    0.794706     0.007504
PD13796   PD        0.500588    0.441765    0.765294     0.005394
PD13797   PD        0.530000    0.412353    0.765294     0.005394
PD13798   PD        0.530000    0.441765    0.794706     0.005394
PD13799   PD        0.559412    0.412353    0.794706     0.005394
AU13800   AU        0.559412    0.441765    0.765294     0.007504
AU13801   AU        0.588824    0.412353    0.765294     0.007504
PD13802   PD        0.588824    0.441765    0.794706     0.005394
AU13803   AU        0.618235    0.412353    0.794706     0.007504
PD13804   PD        0.618235    0.441765    0.765294     0.005394
PD13805   PD        0.647647    0.412353    0.765294     0.005394
PD13808   PD        0.677059    0.441765    0.765294     0.005394
PD13844   PD        0.265294    0.500588    0.765294     0.005394
AU13845   AU        0.294706    0.471176    0.765294     0.007504
AU13847   AU        0.324118    0.471176    0.794706     0.007504
PD13848   PD        0.324118    0.500588    0.765294     0.005394
PD13849   PD        0.353529    0.471176    0.765294     0.005394
AU13850   AU        0.353529    0.500588    0.794706     0.007504
PD13851   PD        0.382941    0.471176    0.794706     0.005394
PD13852   PD        0.382941    0.500588    0.765294     0.005394
PD13853   PD        0.412353    0.471176    0.765294     0.005394
PD13854   PD        0.412353    0.500588    0.794706     0.005394
PD13855   PD        0.441765    0.471176    0.794706     0.005394
PD13856   PD        0.441765    0.500588    0.765294     0.005394
PD13857   PD        0.471176    0.471176    0.765294     0.005394
PD13858   PD        0.471176    0.500588    0.794706     0.005394
PD13859   PD        0.500588    0.471176    0.794706     0.005394
AU13860   AU        0.500588    0.500588    0.765294     0.007504
AU13861   AU        0.530000    0.471176    0.765294     0.007504
AU13862   AU        0.530000    0.500588    0.794706     0.007504
PD13863   PD        0.559412    0.471176    0.794706     0.005394
AU13864   AU        0.559412    0.500588    0.765294     0.007504
AU13865   AU        0.588824    0.471176    0.765294     0.007504
PD13866   PD        0.588824    0.500588    0.794706     0.005394
PD13867   PD        0.618235    0.471176    0.794706     0.005394
PD13868   PD        0.618235    0.500588    0.765294     0.005394
PD13869   PD        0.647647    0.471176    0.765294     0.005394
AU13872   AU        0.677059    0.500588    0.765294     0.007504
PD13909   PD        0.294706    0.530000    0.765294     0.005394
PD13911   PD        0.324118    0.530000    0.794706     0.005394
AU13912   AU        0.324118    0.559412    0.765294     0.007504
PD13913   PD        0.353529    0.530000    0.765294     0.005394
AU13914   AU        0.353529    0.559412    0.794706     0.007504
AU13915   AU        0.382941    0.530000    0.794706     0.007504
AU13916   AU        0.382941    0.559412    0.765294     0.007504
PD13917   PD        0.412353    0.530000    0.765294     0.005394
PD13918   PD        0.412353    0.559412    0.794706     0.005394
PD13919   PD        0.441765    0.530000    0.794706     0.005394
PD13920   PD        0.441765    0.559412    0.765294     0.005394
PD13921   PD        0.471176    0.530000    0.765294     0.005394
PD13922   PD        0.471176    0.559412    0.794706     0.005394
AU13923   AU        0.500588    0.530000    0.794706     0.007504
PD13924   PD        0.500588    0.559412    0.765294     0.005394
AU13925   AU        0.530000    0.530000    0.765294     0.007504
AU13926   AU        0.530000    0.559412    0.794706     0.007504
PD13927   PD        0.559412    0.530000    0.794706     0.005394
PD13928   PD        0.559412    0.559412    0.765294     0.005394
PD13929   PD        0.588824    0.530000    0.765294     0.005394
AU13930   AU        0.588824    0.559412    0.794706     0.007504
PD13931   PD        0.618235    0.530000    0.794706     0.005394
AU13932   AU        0.618235    0.559412    0.765294     0.007504
PD13933   PD        0.647647    0.530000    0.765294     0.005394
AU13976   AU        0.324118    0.618235    0.765294     0.007504
PD13977   PD        0.353529    0.588824    0.765294     0.005394
PD13979   PD        0.382941    0.588824    0.794706     0.005394
AU13980   AU        0.382941    0.618235    0.765294     0.007504
AU13981   AU        0.412353    0.588824    0.765294     0.007504
AU13982   AU        0.412353    0.618235    0.794706     0.007504
PD13983   PD        0.441765    0.588824    0.794706     0.005394
AU13984   AU        0.441765    0.618235    0.765294     0.007504
AU13985   AU        0.471176    0.588824    0.765294     0.007504
PD13986   PD        0.471176    0.618235    0.794706     0.005394
PD13987   PD        0.500588    0.588824    0.794706     0.005394
AU13988   AU        0.500588    0.618235    0.765294     0.007504
PD13989   PD        0.530000    0.588824    0.765294     0.005394
PD13990   PD        0.530000    0.618235    0.794706     0.005394
PD13991   PD        0.559412    0.588824    0.794706     0.005394
AU13992   AU        0.559412    0.618235    0.765294     0.007504
PD13993   PD        0.588824    0.588824    0.765294     0.005394
PD13996   PD        0.618235    0.618235    0.765294     0.005394
AU14045   AU        0.412353    0.647647    0.765294     0.007504
PD14048   PD        0.441765    0.677059    0.765294     0.005394
PD14049   PD        0.471176    0.647647    0.765294     0.005394
PD14052   PD        0.500588    0.677059    0.765294     0.005394
PD14053   PD        0.530000    0.647647    0.765294     0.005394
AU14816   AU        0.441765    0.441765    0.824118     0.007504
PD14817   PD        0.471176    0.412353    0.824118     0.005394
AU14820   AU        0.500588    0.441765    0.824118     0.007504
AU14877   AU        0.412353    0.471176    0.824118     0.007504
AU14880   AU        0.441765    0.500588    0.824118     0.007504
PD14881   PD        0.471176    0.471176    0.824118     0.005394
PD14884   PD        0.500588    0.500588    0.824118     0.005394
PD14885   PD        0.530000    0.471176    0.824118     0.005394
PD14945   PD        0.471176    0.530000    0.824118     0.005394
