data_00001
_audit_creation_method   'DISCUS'

_data_chemical_name_common 'Au.cell: lattice parameter from Pearson85'

_cell_length_a             57.1046
_cell_length_b             53.0257
_cell_length_c             53.0257
_cell_angle_alpha     90.0000
_cell_angle_beta      90.0000
_cell_angle_gamma     90.0000

_symmetry_space_group_name_H-M   'P1              '

loop_
_atom_site_label
_atom_site_symbol
_atom_site_fract_x
_atom_site_fract_y
_atom_site_fract_z
_atom_site_u_iso_or_equiv
PD1   PD        0.356774    0.266553    0.037942     0.005394
PD2   PD        0.426229    0.268172    0.039145     0.005394
PD3   PD        0.501260    0.267091    0.043015     0.005394
PD4   PD        0.280099    0.345040    0.041405     0.005394
PD5   PD        0.316314    0.307290    0.041999     0.005394
PD6   PD        0.351805    0.345255    0.040124     0.005394
PD7   PD        0.393326    0.306640    0.038291     0.005394
PD8   PD        0.427269    0.342587    0.033054     0.005394
PD9   PD        0.467253    0.307975    0.039812     0.005394
PD10   PD        0.501657    0.345196    0.034794     0.005394
AU11   AU        0.534949    0.306668    0.037509     0.007504
PD12   PD        0.572859    0.346126    0.038097     0.005394
PD13   PD        0.247034    0.380488    0.041105     0.005394
PD14   PD        0.278252    0.425159    0.038616     0.005394
AU15   AU        0.317483    0.383712    0.033024     0.007504
PD16   PD        0.356392    0.421610    0.036978     0.005394
AU17   AU        0.392369    0.381961    0.035581     0.007504
PD18   PD        0.394512    0.423461    0.003652     0.005394
PD19   PD        0.429683    0.385373    0.000769     0.005394
PD20   PD        0.429885    0.420894    0.039486     0.005394
PD21   PD        0.466427    0.383079    0.034455     0.005394
PD22   PD        0.462764    0.424674    0.001918     0.005394
PD23   PD        0.498310    0.423361    0.038679     0.005394
PD24   PD        0.534406    0.386278    0.037638     0.005394
PD25   PD        0.571687    0.425330    0.039767     0.005394
PD26   PD        0.608040    0.387251    0.040752     0.005394
PD27   PD        0.246308    0.464875    0.038726     0.005394
PD28   PD        0.284445    0.498349    0.039154     0.005394
PD29   PD        0.321075    0.460416    0.038524     0.005394
PD30   PD        0.355630    0.460046    0.000860     0.005394
PD31   PD        0.356352    0.501166    0.036908     0.005394
PD32   PD        0.392277    0.460161    0.039866     0.005394
PD33   PD        0.390860    0.497703    0.001453     0.005394
PD34   PD        0.428482    0.460243    0.005026     0.005394
PD35   PD        0.427211    0.499251    0.037941     0.005394
PD36   PD        0.463302    0.461145    0.039333     0.005394
PD37   PD        0.464871    0.500802    0.002488     0.005394
PD38   PD        0.500817    0.460663    0.003300     0.005394
PD39   PD        0.498413    0.498086    0.043184     0.005394
PD40   PD        0.535111    0.460880    0.041954     0.005394
PD41   PD        0.567197    0.497885    0.039465     0.005394
PD42   PD        0.603971    0.463216    0.037699     0.005394
PD43   PD        0.248576    0.536633    0.040078     0.005394
PD44   PD        0.281551    0.575667    0.038640     0.005394
PD45   PD        0.320557    0.538451    0.037156     0.005394
PD46   PD        0.355356    0.578111    0.037717     0.005394
PD47   PD        0.392203    0.538773    0.037096     0.005394
PD48   PD        0.427113    0.536998    0.002160     0.005394
PD49   PD        0.425261    0.576464    0.037082     0.005394
PD50   PD        0.461573    0.540939    0.039005     0.005394
PD51   PD        0.495047    0.578299    0.040311     0.005394
PD52   PD        0.532977    0.536870    0.040707     0.005394
PD53   PD        0.569813    0.578024    0.037407     0.005394
PD54   PD        0.602933    0.535532    0.038222     0.005394
PD55   PD        0.317412    0.616503    0.036193     0.005394
PD56   PD        0.353611    0.657787    0.039784     0.005394
PD57   PD        0.388437    0.618328    0.038805     0.005394
PD58   PD        0.428429    0.657125    0.039629     0.005394
PD59   PD        0.462826    0.617191    0.038573     0.005394
PD60   PD        0.501009    0.653780    0.042038     0.005394
PD61   PD        0.532256    0.617278    0.037304     0.005394
PD62   PD        0.282087    0.193342    0.114664     0.005394
PD63   PD        0.357018    0.192693    0.114616     0.005394
PD64   PD        0.392284    0.157178    0.114437     0.005394
PD65   PD        0.390356    0.193633    0.077326     0.005394
PD66   PD        0.428491    0.192886    0.116207     0.005394
PD67   PD        0.462348    0.151488    0.116721     0.005394
PD68   PD        0.464560    0.192000    0.080659     0.005394
PD69   PD        0.500748    0.191246    0.114945     0.005394
PD70   PD        0.573081    0.194213    0.114930     0.005394
PD71   PD        0.210972    0.266933    0.117666     0.005394
PD72   PD        0.250051    0.233265    0.119630     0.005394
PD73   PD        0.244643    0.267583    0.078912     0.005394
PD74   PD        0.285107    0.268304    0.115996     0.005394
PD75   PD        0.318495    0.228041    0.111564     0.005394
PD76   PD        0.319015    0.269804    0.077566     0.005394
PD77   PD        0.356321    0.231199    0.077711     0.005394
AU78   AU        0.356183    0.266735    0.113352     0.007504
PD79   PD        0.394327    0.229562    0.115779     0.005394
PD80   PD        0.392013    0.267570    0.075422     0.005394
PD81   PD        0.428018    0.227650    0.075470     0.005394
PD82   PD        0.427906    0.269380    0.114395     0.005394
PD83   PD        0.462570    0.231004    0.113574     0.005394
PD84   PD        0.463200    0.268419    0.077014     0.005394
PD85   PD        0.498365    0.230141    0.079163     0.005394
PD86   PD        0.499943    0.269113    0.112570     0.005394
PD87   PD        0.536102    0.229790    0.111588     0.005394
PD88   PD        0.536796    0.268045    0.078402     0.005394
PD89   PD        0.574427    0.267762    0.113533     0.005394
PD90   PD        0.610630    0.231081    0.114579     0.005394
PD91   PD        0.605882    0.268721    0.076582     0.005394
PD92   PD        0.642667    0.272396    0.113081     0.005394
PD93   PD        0.177379    0.306247    0.115198     0.005394
PD94   PD        0.212237    0.344792    0.115289     0.005394
PD95   PD        0.246605    0.305380    0.113579     0.005394
PD96   PD        0.248927    0.345390    0.080707     0.005394
PD97   PD        0.283134    0.306538    0.079466     0.005394
PD98   PD        0.284914    0.341622    0.117134     0.005394
PD99   PD        0.321046    0.304961    0.116713     0.005394
AU100   AU        0.317628    0.342748    0.077763     0.007504
PD101   PD        0.356054    0.304811    0.075040     0.005394
AU102   AU        0.355830    0.344928    0.114034     0.007504
PD103   PD        0.392297    0.305449    0.111526     0.005394
AU104   AU        0.389616    0.344430    0.074198     0.007504
PD105   PD        0.428597    0.307862    0.075686     0.005394
AU106   AU        0.428336    0.343325    0.111677     0.007504
AU107   AU        0.464917    0.306802    0.110006     0.007504
PD108   PD        0.464787    0.347093    0.072301     0.005394
PD109   PD        0.502328    0.306406    0.075934     0.005394
AU110   AU        0.499561    0.344886    0.111292     0.007504
PD111   PD        0.536501    0.305632    0.114524     0.005394
AU112   AU        0.537087    0.345476    0.074325     0.007504
PD113   PD        0.571693    0.308135    0.078417     0.005394
PD114   PD        0.570675    0.347766    0.115535     0.005394
PD115   PD        0.607288    0.310603    0.112627     0.005394
PD116   PD        0.604599    0.348511    0.078177     0.005394
PD117   PD        0.640355    0.347874    0.115081     0.005394
PD118   PD        0.677103    0.312856    0.112603     0.005394
PD119   PD        0.139455    0.424228    0.114402     0.005394
PD120   PD        0.175380    0.386187    0.114943     0.005394
PD121   PD        0.176570    0.423928    0.078313     0.005394
PD122   PD        0.212439    0.384472    0.079500     0.005394
PD123   PD        0.211670    0.424523    0.114899     0.005394
PD124   PD        0.246592    0.385703    0.116742     0.005394
PD125   PD        0.245530    0.421696    0.077676     0.005394
PD126   PD        0.280716    0.383658    0.075691     0.005394
AU127   AU        0.283624    0.423464    0.115742     0.007504
PD128   PD        0.320478    0.384510    0.111541     0.005394
AU129   AU        0.318511    0.421703    0.073150     0.007504
PD130   PD        0.353826    0.383452    0.075383     0.005394
PD131   PD        0.355565    0.421579    0.112200     0.005394
AU132   AU        0.390649    0.383592    0.112289     0.007504
AU133   AU        0.392983    0.419775    0.074978     0.007504
AU134   AU        0.427599    0.380699    0.073021     0.007504
PD135   PD        0.427221    0.419749    0.109697     0.005394
AU136   AU        0.463731    0.384070    0.113392     0.007504
PD137   PD        0.466365    0.422428    0.076406     0.005394
AU138   AU        0.499941    0.384626    0.075261     0.007504
PD139   PD        0.501951    0.420988    0.113770     0.005394
PD140   PD        0.536736    0.385323    0.114384     0.005394
PD141   PD        0.534221    0.422100    0.078244     0.005394
AU142   AU        0.570210    0.386701    0.076116     0.007504
PD143   PD        0.571378    0.420592    0.116783     0.005394
AU144   AU        0.606742    0.383890    0.117959     0.007504
PD145   PD        0.605598    0.423316    0.077437     0.005394
PD146   PD        0.641312    0.387315    0.080158     0.005394
PD147   PD        0.638967    0.424421    0.115687     0.005394
PD148   PD        0.676586    0.387254    0.116082     0.005394
PD149   PD        0.675879    0.426397    0.079485     0.005394
PD150   PD        0.713024    0.427740    0.115013     0.005394
PD151   PD        0.140436    0.496689    0.114051     0.005394
PD152   PD        0.177898    0.460537    0.112599     0.005394
PD153   PD        0.178339    0.498651    0.077588     0.005394
PD154   PD        0.213352    0.464326    0.076418     0.005394
PD155   PD        0.210949    0.500664    0.114614     0.005394
PD156   PD        0.250186    0.462491    0.117383     0.005394
PD157   PD        0.251089    0.499787    0.077466     0.005394
PD158   PD        0.283048    0.460593    0.074421     0.005394
PD159   PD        0.285112    0.498263    0.112967     0.005394
AU160   AU        0.318299    0.460075    0.111479     0.007504
AU161   AU        0.318456    0.500638    0.075966     0.007504
PD162   PD        0.354639    0.459934    0.074999     0.005394
AU163   AU        0.355834    0.498234    0.113186     0.007504
AU164   AU        0.391481    0.461733    0.111123     0.007504
PD165   PD        0.390448    0.500020    0.075099     0.005394
PD166   PD        0.428420    0.459887    0.075378     0.005394
PD167   PD        0.427283    0.500044    0.110295     0.005394
AU168   AU        0.463399    0.456868    0.114665     0.007504
PD169   PD        0.461268    0.499630    0.076101     0.005394
PD170   PD        0.498659    0.459766    0.077378     0.005394
AU171   AU        0.496915    0.496588    0.111952     0.007504
PD172   PD        0.535132    0.459454    0.113022     0.005394
PD173   PD        0.533393    0.498476    0.076780     0.005394
PD174   PD        0.570050    0.459108    0.077571     0.005394
PD175   PD        0.569505    0.500221    0.110985     0.005394
PD176   PD        0.603314    0.462286    0.114056     0.005394
PD177   PD        0.602979    0.499514    0.075953     0.005394
PD178   PD        0.639187    0.462857    0.079098     0.005394
PD179   PD        0.636851    0.502207    0.113280     0.005394
PD180   PD        0.676162    0.465258    0.115805     0.005394
PD181   PD        0.677184    0.502095    0.078152     0.005394
PD182   PD        0.710814    0.503304    0.116562     0.005394
PD183   PD        0.175179    0.535961    0.114952     0.005394
PD184   PD        0.212889    0.536850    0.078376     0.005394
PD185   PD        0.209852    0.576835    0.116140     0.005394
PD186   PD        0.247704    0.537656    0.115251     0.005394
PD187   PD        0.248003    0.575373    0.077174     0.005394
PD188   PD        0.283961    0.537868    0.075394     0.005394
AU189   AU        0.284430    0.576775    0.112091     0.007504
AU190   AU        0.320608    0.541322    0.111158     0.007504
PD191   PD        0.317925    0.578489    0.071448     0.005394
PD192   PD        0.357115    0.538492    0.074013     0.005394
PD193   PD        0.356760    0.580727    0.112468     0.005394
AU194   AU        0.392744    0.540703    0.110395     0.007504
AU195   AU        0.391570    0.578026    0.073200     0.007504
PD196   PD        0.427155    0.539190    0.073756     0.005394
PD197   PD        0.427830    0.575553    0.110805     0.005394
AU198   AU        0.463086    0.539069    0.111322     0.007504
AU199   AU        0.461015    0.578845    0.076583     0.007504
PD200   PD        0.496251    0.535165    0.075205     0.005394
PD201   PD        0.497477    0.577525    0.111166     0.005394
PD202   PD        0.532318    0.540370    0.109508     0.005394
PD203   PD        0.533194    0.578558    0.071603     0.005394
PD204   PD        0.568384    0.536466    0.075877     0.005394
AU205   AU        0.569511    0.578124    0.112698     0.007504
PD206   PD        0.604719    0.540319    0.112037     0.005394
PD207   PD        0.603483    0.575951    0.075259     0.005394
PD208   PD        0.639042    0.539275    0.076435     0.005394
PD209   PD        0.639390    0.576374    0.116110     0.005394
PD210   PD        0.673089    0.537285    0.116345     0.005394
PD211   PD        0.179593    0.613166    0.113604     0.005394
PD212   PD        0.213317    0.651162    0.115279     0.005394
PD213   PD        0.246122    0.613234    0.111669     0.005394
PD214   PD        0.247840    0.652418    0.077219     0.005394
PD215   PD        0.281418    0.614543    0.076633     0.005394
PD216   PD        0.283761    0.654095    0.111941     0.005394
PD217   PD        0.320078    0.615187    0.110094     0.005394
PD218   PD        0.319940    0.655901    0.074147     0.005394
PD219   PD        0.355195    0.617265    0.075785     0.005394
PD220   PD        0.355213    0.651890    0.113691     0.005394
AU221   AU        0.390803    0.615370    0.110686     0.007504
PD222   PD        0.390705    0.654795    0.076410     0.005394
PD223   PD        0.425756    0.618771    0.073916     0.005394
PD224   PD        0.426105    0.654964    0.111502     0.005394
PD225   PD        0.461659    0.618335    0.110063     0.005394
PD226   PD        0.463135    0.655782    0.074560     0.005394
PD227   PD        0.497823    0.617994    0.076493     0.005394
PD228   PD        0.499171    0.655679    0.111668     0.005394
PD229   PD        0.533554    0.617204    0.110058     0.005394
PD230   PD        0.536208    0.655843    0.076595     0.005394
PD231   PD        0.568475    0.613717    0.075431     0.005394
PD232   PD        0.567135    0.655373    0.115145     0.005394
PD233   PD        0.605098    0.614077    0.115205     0.005394
PD234   PD        0.605007    0.650703    0.078725     0.005394
PD235   PD        0.640678    0.652856    0.115345     0.005394
PD236   PD        0.673556    0.612048    0.115182     0.005394
PD237   PD        0.247715    0.689377    0.117176     0.005394
PD238   PD        0.283456    0.728867    0.113666     0.005394
PD239   PD        0.318214    0.690781    0.112455     0.005394
PD240   PD        0.355257    0.690899    0.077888     0.005394
PD241   PD        0.353241    0.731297    0.113906     0.005394
PD242   PD        0.390927    0.694066    0.112270     0.005394
PD243   PD        0.391821    0.732343    0.076442     0.005394
PD244   PD        0.427498    0.695049    0.075580     0.005394
PD245   PD        0.424143    0.729303    0.117056     0.005394
PD246   PD        0.461038    0.693689    0.112075     0.005394
PD247   PD        0.459784    0.732372    0.074249     0.005394
PD248   PD        0.496851    0.694471    0.078246     0.005394
PD249   PD        0.496399    0.732896    0.113741     0.005394
PD250   PD        0.533120    0.691976    0.114800     0.005394
PD251   PD        0.569152    0.730783    0.116130     0.005394
AU252   AU        0.603050    0.692799    0.112743     0.007504
PD253   PD        0.390177    0.769331    0.114497     0.005394
PD254   PD        0.461272    0.769756    0.113959     0.005394
PD255   PD        0.289339    0.117065    0.188394     0.005394
PD256   PD        0.359946    0.116622    0.190931     0.005394
PD257   PD        0.394417    0.080182    0.193026     0.005394
PD258   PD        0.397068    0.116866    0.156206     0.005394
PD259   PD        0.431614    0.118113    0.193223     0.005394
PD260   PD        0.464628    0.080269    0.190150     0.005394
PD261   PD        0.464978    0.114796    0.154003     0.005394
PD262   PD        0.500612    0.120304    0.189848     0.005394
PD263   PD        0.575292    0.116225    0.188927     0.005394
PD264   PD        0.214524    0.189406    0.192282     0.005394
PD265   PD        0.248790    0.154018    0.190762     0.005394
PD266   PD        0.248730    0.191574    0.153504     0.005394
PD267   PD        0.284769    0.154791    0.151345     0.005394
PD268   PD        0.284173    0.191244    0.190302     0.005394
PD269   PD        0.321663    0.155578    0.188516     0.005394
AU270   AU        0.319888    0.191620    0.149414     0.007504
AU271   AU        0.359440    0.151295    0.151930     0.007504
AU272   AU        0.359468    0.190105    0.189511     0.007504
PD273   PD        0.394816    0.154487    0.191551     0.005394
PD274   PD        0.395328    0.190422    0.152474     0.005394
PD275   PD        0.428858    0.154391    0.154996     0.005394
PD276   PD        0.429073    0.193628    0.190061     0.005394
PD277   PD        0.464538    0.159149    0.191510     0.005394
PD278   PD        0.465724    0.192263    0.148780     0.005394
PD279   PD        0.499412    0.151536    0.149794     0.005394
PD280   PD        0.501837    0.192741    0.190521     0.005394
PD281   PD        0.538235    0.153941    0.190003     0.005394
PD282   PD        0.536503    0.191995    0.151068     0.005394
PD283   PD        0.572454    0.156386    0.151193     0.005394
PD284   PD        0.572143    0.191944    0.189348     0.005394
PD285   PD        0.610852    0.152441    0.187516     0.005394
PD286   PD        0.607882    0.193466    0.153691     0.005394
PD287   PD        0.643357    0.192451    0.189405     0.005394
PD288   PD        0.145117    0.266928    0.188696     0.005394
PD289   PD        0.180576    0.226108    0.193721     0.005394
PD290   PD        0.178825    0.266855    0.154046     0.005394
PD291   PD        0.214203    0.229824    0.156393     0.005394
PD292   PD        0.213404    0.267395    0.190917     0.005394
PD293   PD        0.247035    0.228247    0.191640     0.005394
PD294   PD        0.248128    0.272220    0.152337     0.005394
PD295   PD        0.285796    0.228819    0.152493     0.005394
PD296   PD        0.283053    0.265761    0.193560     0.005394
PD297   PD        0.320755    0.226198    0.190986     0.005394
PD298   PD        0.321037    0.266672    0.154533     0.005394
PD299   PD        0.354297    0.231130    0.154890     0.005394
PD300   PD        0.353481    0.269187    0.189433     0.005394
AU301   AU        0.392988    0.229222    0.187750     0.007504
AU302   AU        0.391549    0.266382    0.151376     0.007504
PD303   PD        0.428631    0.229755    0.150698     0.005394
AU304   AU        0.426461    0.268375    0.187421     0.007504
AU305   AU        0.466122    0.227384    0.185752     0.007504
PD306   PD        0.463851    0.269357    0.148052     0.005394
PD307   PD        0.500337    0.231225    0.149152     0.005394
AU308   AU        0.500648    0.266845    0.188068     0.007504
AU309   AU        0.535191    0.229680    0.188670     0.007504
PD310   PD        0.534372    0.266484    0.149331     0.005394
PD311   PD        0.572783    0.229805    0.152256     0.005394
AU312   AU        0.570925    0.271144    0.187773     0.007504
PD313   PD        0.609377    0.233259    0.188752     0.005394
PD314   PD        0.610034    0.270909    0.151170     0.005394
PD315   PD        0.644201    0.228896    0.151280     0.005394
PD316   PD        0.645514    0.269478    0.186963     0.005394
PD317   PD        0.678245    0.230287    0.190427     0.005394
PD318   PD        0.676681    0.270203    0.151076     0.005394
PD319   PD        0.713419    0.269758    0.189666     0.005394
PD320   PD        0.110554    0.303109    0.191004     0.005394
PD321   PD        0.143112    0.306004    0.152907     0.005394
PD322   PD        0.142817    0.343552    0.192090     0.005394
PD323   PD        0.179449    0.307305    0.190623     0.005394
PD324   PD        0.173398    0.344394    0.149882     0.005394
PD325   PD        0.210510    0.308118    0.152831     0.005394
PD326   PD        0.209125    0.346140    0.187615     0.005394
PD327   PD        0.245599    0.309524    0.190323     0.005394
PD328   PD        0.247553    0.343230    0.152343     0.005394
PD329   PD        0.283495    0.305835    0.154520     0.005394
AU330   AU        0.285191    0.346510    0.191140     0.007504
AU331   AU        0.321499    0.307688    0.189926     0.007504
AU332   AU        0.321528    0.344692    0.150010     0.007504
AU333   AU        0.357707    0.305652    0.149853     0.007504
PD334   PD        0.356860    0.343829    0.189813     0.005394
AU335   AU        0.392417    0.310675    0.187935     0.007504
PD336   PD        0.392244    0.347348    0.150565     0.005394
AU337   AU        0.428567    0.306848    0.148294     0.007504
AU338   AU        0.429959    0.342904    0.187842     0.007504
PD339   PD        0.462616    0.304057    0.187004     0.005394
AU340   AU        0.465097    0.344277    0.149367     0.007504
PD341   PD        0.500083    0.305820    0.149402     0.005394
AU342   AU        0.499381    0.341179    0.189656     0.007504
AU343   AU        0.534643    0.305539    0.190748     0.007504
AU344   AU        0.535488    0.345800    0.153662     0.007504
AU345   AU        0.570623    0.307202    0.150912     0.007504
AU346   AU        0.572457    0.342690    0.190525     0.007504
PD347   PD        0.607662    0.307891    0.188846     0.005394
PD348   PD        0.607562    0.348580    0.155067     0.005394
PD349   PD        0.641216    0.309318    0.154977     0.005394
AU350   AU        0.643718    0.349036    0.191124     0.007504
PD351   PD        0.679284    0.310161    0.187203     0.005394
PD352   PD        0.676574    0.348794    0.150114     0.005394
PD353   PD        0.711954    0.306874    0.149981     0.005394
PD354   PD        0.714171    0.347518    0.184564     0.005394
PD355   PD        0.745490    0.306387    0.186301     0.005394
PD356   PD        0.069496    0.421679    0.194627     0.005394
PD357   PD        0.106508    0.384482    0.193745     0.005394
PD358   PD        0.104012    0.421156    0.153619     0.005394
PD359   PD        0.140016    0.385184    0.152420     0.005394
PD360   PD        0.139987    0.422300    0.189157     0.005394
AU361   AU        0.175463    0.385086    0.188201     0.007504
PD362   PD        0.178478    0.422771    0.150679     0.005394
AU363   AU        0.210811    0.383603    0.151003     0.007504
AU364   AU        0.211287    0.420878    0.188037     0.007504
PD365   PD        0.247394    0.387450    0.188059     0.005394
PD366   PD        0.246904    0.423292    0.151832     0.005394
AU367   AU        0.284240    0.382153    0.148636     0.007504
PD368   PD        0.282764    0.421327    0.189422     0.005394
AU369   AU        0.319191    0.382949    0.188198     0.007504
AU370   AU        0.319944    0.421433    0.152406     0.007504
AU371   AU        0.356109    0.382314    0.150211     0.007504
AU372   AU        0.354959    0.422643    0.188946     0.007504
AU373   AU        0.392166    0.383579    0.187471     0.007504
AU374   AU        0.391875    0.421648    0.148396     0.007504
AU375   AU        0.425887    0.383450    0.149447     0.007504
AU376   AU        0.426949    0.422165    0.185892     0.007504
AU377   AU        0.464844    0.381385    0.187340     0.007504
PD378   PD        0.461962    0.418862    0.151153     0.005394
AU379   AU        0.499780    0.381934    0.151710     0.007504
AU380   AU        0.497699    0.422648    0.187969     0.007504
AU381   AU        0.533677    0.383090    0.191370     0.007504
AU382   AU        0.536124    0.421329    0.152115     0.007504
PD383   PD        0.571137    0.386524    0.154950     0.005394
AU384   AU        0.571875    0.423071    0.192344     0.007504
PD385   PD        0.608125    0.387340    0.191055     0.005394
AU386   AU        0.605052    0.424287    0.153045     0.007504
AU387   AU        0.642301    0.385472    0.153977     0.007504
PD388   PD        0.643481    0.426182    0.189874     0.005394
AU389   AU        0.679652    0.387552    0.188549     0.007504
PD390   PD        0.675377    0.426947    0.150359     0.005394
PD391   PD        0.713615    0.390360    0.149580     0.005394
PD392   PD        0.713541    0.424996    0.187712     0.005394
PD393   PD        0.748871    0.385209    0.185574     0.005394
PD394   PD        0.748716    0.428559    0.149359     0.005394
PD395   PD        0.784149    0.422494    0.184422     0.005394
PD396   PD        0.072351    0.499259    0.190933     0.005394
PD397   PD        0.106064    0.460985    0.190313     0.005394
PD398   PD        0.106525    0.499457    0.153374     0.005394
PD399   PD        0.137375    0.461418    0.151154     0.005394
PD400   PD        0.138880    0.498671    0.189959     0.005394
PD401   PD        0.173970    0.461159    0.187505     0.005394
PD402   PD        0.176070    0.500647    0.152801     0.005394
AU403   AU        0.213402    0.463140    0.154519     0.007504
PD404   PD        0.211755    0.498974    0.188270     0.005394
AU405   AU        0.247612    0.461192    0.189867     0.007504
AU406   AU        0.249593    0.500451    0.150958     0.007504
PD407   PD        0.284560    0.459813    0.153245     0.005394
AU408   AU        0.283875    0.499203    0.188037     0.007504
AU409   AU        0.323242    0.460153    0.188000     0.007504
AU410   AU        0.321552    0.497829    0.152837     0.007504
AU411   AU        0.357340    0.460448    0.147726     0.007504
PD412   PD        0.357160    0.502581    0.189177     0.005394
AU413   AU        0.391611    0.462019    0.185774     0.007504
AU414   AU        0.391995    0.501376    0.149061     0.007504
AU415   AU        0.426459    0.462501    0.146641     0.007504
AU416   AU        0.425860    0.500505    0.190393     0.007504
AU417   AU        0.461334    0.462052    0.188584     0.007504
AU418   AU        0.460987    0.499784    0.150506     0.007504
AU419   AU        0.498086    0.463402    0.153287     0.007504
AU420   AU        0.497786    0.500576    0.189833     0.007504
AU421   AU        0.534881    0.461273    0.191535     0.007504
AU422   AU        0.534508    0.504869    0.146186     0.007504
AU423   AU        0.568955    0.464659    0.151528     0.007504
AU424   AU        0.568258    0.501265    0.190830     0.007504
AU425   AU        0.604353    0.463464    0.192147     0.007504
AU426   AU        0.602345    0.500140    0.149795     0.007504
AU427   AU        0.640468    0.463776    0.151592     0.007504
PD428   PD        0.639024    0.501808    0.190289     0.005394
PD429   PD        0.677206    0.464088    0.188650     0.005394
PD430   PD        0.674833    0.501372    0.152366     0.005394
PD431   PD        0.711668    0.465651    0.152373     0.005394
PD432   PD        0.710154    0.501052    0.189195     0.005394
PD433   PD        0.748436    0.464711    0.187965     0.005394
PD434   PD        0.747909    0.503798    0.151029     0.005394
PD435   PD        0.782395    0.506732    0.188059     0.005394
PD436   PD        0.107057    0.538643    0.190897     0.005394
PD437   PD        0.140680    0.534892    0.153196     0.005394
PD438   PD        0.139598    0.574501    0.190128     0.005394
PD439   PD        0.177400    0.540415    0.188919     0.005394
PD440   PD        0.175490    0.574191    0.150799     0.005394
PD441   PD        0.211593    0.537331    0.150644     0.005394
AU442   AU        0.213338    0.575746    0.188910     0.007504
PD443   PD        0.249427    0.539629    0.189361     0.005394
AU444   AU        0.250107    0.576175    0.148846     0.007504
PD445   PD        0.284461    0.537713    0.151396     0.005394
AU446   AU        0.285579    0.578270    0.186431     0.007504
AU447   AU        0.319947    0.540205    0.187566     0.007504
AU448   AU        0.319934    0.579326    0.150555     0.007504
AU449   AU        0.357357    0.540018    0.151060     0.007504
AU450   AU        0.354794    0.578086    0.190974     0.007504
AU451   AU        0.390291    0.542113    0.190734     0.007504
AU452   AU        0.389725    0.575985    0.150152     0.007504
AU453   AU        0.426901    0.538664    0.149818     0.007504
AU454   AU        0.427935    0.578380    0.192724     0.007504
AU455   AU        0.464030    0.540000    0.189214     0.007504
AU456   AU        0.463724    0.576775    0.149363     0.007504
AU457   AU        0.499090    0.538927    0.149447     0.007504
AU458   AU        0.498883    0.580835    0.191740     0.007504
AU459   AU        0.534216    0.538747    0.191338     0.007504
AU460   AU        0.532770    0.577326    0.147216     0.007504
PD461   PD        0.570944    0.538973    0.148674     0.005394
AU462   AU        0.569825    0.576977    0.187360     0.007504
PD463   PD        0.605272    0.538133    0.191155     0.005394
PD464   PD        0.605137    0.576436    0.151314     0.005394
PD465   PD        0.639015    0.537875    0.153379     0.005394
PD466   PD        0.641708    0.576730    0.191955     0.005394
PD467   PD        0.676448    0.540308    0.188590     0.005394
PD468   PD        0.674889    0.574994    0.151895     0.005394
PD469   PD        0.710621    0.541364    0.151194     0.005394
PD470   PD        0.712053    0.575690    0.190171     0.005394
PD471   PD        0.747256    0.541621    0.188095     0.005394
PD472   PD        0.105794    0.612048    0.190344     0.005394
AU473   AU        0.140719    0.613076    0.150902     0.007504
AU474   AU        0.142460    0.652117    0.191089     0.007504
PD475   PD        0.176279    0.614647    0.188893     0.005394
PD476   PD        0.177228    0.651332    0.151322     0.005394
PD477   PD        0.212191    0.614210    0.151824     0.005394
PD478   PD        0.213467    0.652393    0.190147     0.005394
AU479   AU        0.248788    0.614563    0.188064     0.007504
PD480   PD        0.248203    0.653060    0.150652     0.005394
AU481   AU        0.283837    0.617827    0.149664     0.007504
PD482   PD        0.282098    0.653049    0.189619     0.005394
AU483   AU        0.318823    0.616590    0.188122     0.007504
PD484   PD        0.319670    0.655252    0.150155     0.005394
PD485   PD        0.355715    0.616952    0.150819     0.005394
PD486   PD        0.355057    0.653139    0.188783     0.005394
AU487   AU        0.392166    0.614625    0.188778     0.007504
AU488   AU        0.390410    0.655330    0.147277     0.007504
AU489   AU        0.428862    0.615162    0.150267     0.007504
AU490   AU        0.426279    0.653801    0.187216     0.007504
PD491   PD        0.466275    0.614202    0.188312     0.005394
PD492   PD        0.464779    0.655042    0.147916     0.005394
AU493   AU        0.497670    0.617181    0.147349     0.007504
PD494   PD        0.497940    0.655314    0.187002     0.005394
AU495   AU        0.535368    0.618020    0.187899     0.007504
AU496   AU        0.534673    0.653306    0.151793     0.007504
AU497   AU        0.569824    0.616394    0.148090     0.007504
AU498   AU        0.570490    0.655072    0.187801     0.007504
AU499   AU        0.605671    0.616146    0.188666     0.007504
PD500   PD        0.605191    0.654681    0.149968     0.005394
PD501   PD        0.642040    0.615223    0.153529     0.005394
PD502   PD        0.640212    0.654088    0.187441     0.005394
PD503   PD        0.676544    0.614604    0.188338     0.005394
PD504   PD        0.676581    0.651358    0.150980     0.005394
PD505   PD        0.710759    0.611819    0.149342     0.005394
PD506   PD        0.712315    0.652154    0.189973     0.005394
PD507   PD        0.745488    0.615483    0.191106     0.005394
PD508   PD        0.177946    0.689288    0.193188     0.005394
PD509   PD        0.211662    0.689480    0.154031     0.005394
AU510   AU        0.212297    0.730633    0.191269     0.007504
PD511   PD        0.248238    0.689241    0.188337     0.005394
PD512   PD        0.245515    0.728775    0.153191     0.005394
PD513   PD        0.283661    0.693052    0.152531     0.005394
PD514   PD        0.282946    0.730086    0.189236     0.005394
PD515   PD        0.320915    0.692945    0.186752     0.005394
PD516   PD        0.318711    0.730916    0.153857     0.005394
AU517   AU        0.354983    0.691479    0.147350     0.007504
PD518   PD        0.353496    0.729728    0.190642     0.005394
PD519   PD        0.389643    0.689978    0.185654     0.005394
PD520   PD        0.388794    0.730265    0.149110     0.005394
PD521   PD        0.428033    0.689771    0.148453     0.005394
AU522   AU        0.424464    0.730386    0.186101     0.007504
PD523   PD        0.462686    0.693063    0.186847     0.005394
PD524   PD        0.459628    0.731977    0.151954     0.005394
AU525   AU        0.497960    0.693420    0.149712     0.007504
AU526   AU        0.497966    0.731954    0.188018     0.007504
PD527   PD        0.533732    0.694326    0.186323     0.005394
PD528   PD        0.532372    0.734376    0.150547     0.005394
PD529   PD        0.570808    0.695541    0.150967     0.005394
PD530   PD        0.567537    0.732438    0.187618     0.005394
PD531   PD        0.605484    0.695005    0.188993     0.005394
PD532   PD        0.604315    0.732092    0.153271     0.005394
PD533   PD        0.637529    0.692355    0.151136     0.005394
PD534   PD        0.638855    0.732308    0.190414     0.005394
PD535   PD        0.676272    0.690832    0.187374     0.005394
PD536   PD        0.248014    0.766647    0.193311     0.005394
PD537   PD        0.280237    0.766058    0.148587     0.005394
PD538   PD        0.281365    0.804712    0.190387     0.005394
PD539   PD        0.317278    0.767093    0.189440     0.005394
PD540   PD        0.354907    0.768749    0.151539     0.005394
PD541   PD        0.354109    0.806217    0.189548     0.005394
PD542   PD        0.389583    0.768663    0.189794     0.005394
PD543   PD        0.390639    0.804336    0.152291     0.005394
PD544   PD        0.424996    0.768329    0.151372     0.005394
PD545   PD        0.424996    0.805468    0.190587     0.005394
PD546   PD        0.459993    0.766157    0.189466     0.005394
PD547   PD        0.458441    0.806562    0.152145     0.005394
PD548   PD        0.500335    0.769186    0.148314     0.005394
PD549   PD        0.497079    0.803953    0.190406     0.005394
PD550   PD        0.535271    0.771287    0.188561     0.005394
AU551   AU        0.570270    0.771723    0.152333     0.007504
PD552   PD        0.569147    0.808343    0.191672     0.005394
PD553   PD        0.605050    0.772631    0.192496     0.005394
PD554   PD        0.388251    0.844051    0.188918     0.005394
PD555   PD        0.459294    0.840328    0.187309     0.005394
PD556   PD        0.358808    0.041579    0.267377     0.005394
PD557   PD        0.428595    0.040710    0.267166     0.005394
PD558   PD        0.503835    0.041633    0.267926     0.005394
PD559   PD        0.215883    0.114589    0.268670     0.005394
PD560   PD        0.253587    0.080120    0.265207     0.005394
PD561   PD        0.252459    0.114435    0.227307     0.005394
PD562   PD        0.288210    0.116414    0.265042     0.005394
PD563   PD        0.324270    0.078051    0.265629     0.005394
PD564   PD        0.322697    0.115288    0.228665     0.005394
PD565   PD        0.359961    0.078116    0.229927     0.005394
PD566   PD        0.357333    0.117549    0.265182     0.005394
PD567   PD        0.394745    0.079381    0.265425     0.005394
PD568   PD        0.393109    0.117175    0.229670     0.005394
PD569   PD        0.429517    0.079722    0.227742     0.005394
PD570   PD        0.430614    0.117204    0.266978     0.005394
PD571   PD        0.466243    0.076774    0.266190     0.005394
PD572   PD        0.466412    0.117216    0.225284     0.005394
PD573   PD        0.498479    0.078867    0.227482     0.005394
PD574   PD        0.501420    0.116100    0.265174     0.005394
PD575   PD        0.538449    0.078407    0.265991     0.005394
PD576   PD        0.536988    0.117556    0.228857     0.005394
PD577   PD        0.571332    0.118139    0.268222     0.005394
PD578   PD        0.606690    0.082155    0.264849     0.005394
PD579   PD        0.608856    0.116848    0.226467     0.005394
PD580   PD        0.642529    0.115567    0.266387     0.005394
PD581   PD        0.146604    0.188671    0.267488     0.005394
PD582   PD        0.178929    0.148683    0.265390     0.005394
PD583   PD        0.178604    0.189600    0.229530     0.005394
PD584   PD        0.216899    0.149631    0.230058     0.005394
PD585   PD        0.213638    0.187007    0.265524     0.005394
PD586   PD        0.251654    0.150908    0.266911     0.005394
PD587   PD        0.249446    0.188722    0.229383     0.005394
PD588   PD        0.285771    0.153954    0.226180     0.005394
PD589   PD        0.284659    0.187098    0.262376     0.005394
PD590   PD        0.322599    0.153759    0.264110     0.005394
PD591   PD        0.320136    0.189199    0.226302     0.005394
PD592   PD        0.359532    0.153408    0.229122     0.005394
AU593   AU        0.357030    0.189848    0.266584     0.007504
AU594   AU        0.393177    0.156787    0.267107     0.007504
PD595   PD        0.394758    0.192517    0.227867     0.005394
PD596   PD        0.429827    0.154992    0.228995     0.005394
PD597   PD        0.429864    0.192081    0.265530     0.005394
AU598   AU        0.466368    0.155819    0.263325     0.007504
PD599   PD        0.466804    0.194720    0.228291     0.005394
PD600   PD        0.501733    0.155454    0.227805     0.005394
AU601   AU        0.501383    0.191915    0.266054     0.007504
PD602   PD        0.539011    0.155478    0.264949     0.005394
PD603   PD        0.536775    0.191555    0.225322     0.005394
PD604   PD        0.574103    0.154556    0.226303     0.005394
AU605   AU        0.571176    0.191965    0.267224     0.007504
AU606   AU        0.608555    0.153684    0.266197     0.007504
AU607   AU        0.607035    0.189830    0.228097     0.007504
PD608   PD        0.643422    0.155771    0.228536     0.005394
PD609   PD        0.642998    0.194274    0.266884     0.005394
PD610   PD        0.679482    0.156711    0.264564     0.005394
PD611   PD        0.676741    0.195285    0.230750     0.005394
PD612   PD        0.715128    0.194081    0.264998     0.005394
PD613   PD        0.075281    0.269268    0.263977     0.005394
PD614   PD        0.111542    0.230253    0.267790     0.005394
PD615   PD        0.110009    0.265799    0.228765     0.005394
PD616   PD        0.144746    0.227558    0.228815     0.005394
PD617   PD        0.142812    0.267305    0.268424     0.005394
PD618   PD        0.178459    0.229761    0.264778     0.005394
AU619   AU        0.180267    0.266485    0.227436     0.007504
PD620   PD        0.215875    0.226984    0.229540     0.005394
PD621   PD        0.213171    0.265393    0.266744     0.005394
PD622   PD        0.250153    0.230207    0.266009     0.005394
AU623   AU        0.248207    0.267618    0.228737     0.007504
AU624   AU        0.284184    0.227279    0.229176     0.007504
AU625   AU        0.286484    0.267556    0.263824     0.007504
AU626   AU        0.321166    0.227906    0.266105     0.007504
AU627   AU        0.320062    0.266165    0.228442     0.007504
PD628   PD        0.357841    0.228873    0.227136     0.005394
AU629   AU        0.357266    0.264236    0.264673     0.007504
AU630   AU        0.392182    0.227892    0.267100     0.007504
AU631   AU        0.392321    0.264896    0.225255     0.007504
AU632   AU        0.428608    0.229547    0.227155     0.007504
AU633   AU        0.427167    0.269479    0.263391     0.007504
AU634   AU        0.465450    0.230178    0.266701     0.007504
AU635   AU        0.464178    0.266837    0.224100     0.007504
AU636   AU        0.503035    0.230370    0.229124     0.007504
AU637   AU        0.499264    0.269228    0.266773     0.007504
AU638   AU        0.536525    0.228893    0.265159     0.007504
AU639   AU        0.536616    0.267893    0.227158     0.007504
AU640   AU        0.571804    0.229744    0.227224     0.007504
AU641   AU        0.572492    0.269991    0.265332     0.007504
AU642   AU        0.607511    0.231785    0.264942     0.007504
AU643   AU        0.609124    0.270087    0.226360     0.007504
PD644   PD        0.641401    0.231922    0.227884     0.005394
AU645   AU        0.645039    0.270698    0.264763     0.007504
PD646   PD        0.680027    0.230939    0.267119     0.005394
PD647   PD        0.678648    0.268389    0.224877     0.005394
PD648   PD        0.713461    0.231481    0.226310     0.005394
PD649   PD        0.714676    0.270856    0.265666     0.005394
PD650   PD        0.748546    0.233103    0.263508     0.005394
PD651   PD        0.749108    0.270899    0.228982     0.005394
PD652   PD        0.783611    0.268851    0.265068     0.005394
PD653   PD        0.072814    0.344355    0.265884     0.005394
PD654   PD        0.109637    0.305603    0.266171     0.005394
PD655   PD        0.104441    0.342811    0.226615     0.005394
PD656   PD        0.143537    0.303532    0.228891     0.005394
AU657   AU        0.141539    0.343846    0.266150     0.007504
AU658   AU        0.178655    0.305140    0.266920     0.007504
PD659   PD        0.177383    0.344229    0.227450     0.005394
AU660   AU        0.211114    0.306991    0.229108     0.007504
AU661   AU        0.212575    0.346057    0.265337     0.007504
AU662   AU        0.248406    0.308685    0.265219     0.007504
AU663   AU        0.246499    0.345220    0.226692     0.007504
AU664   AU        0.284542    0.306720    0.228930     0.007504
AU665   AU        0.285873    0.345978    0.263495     0.007504
AU666   AU        0.322560    0.305627    0.262022     0.007504
AU667   AU        0.321009    0.344574    0.227813     0.007504
AU668   AU        0.357225    0.304941    0.227536     0.007504
AU669   AU        0.355718    0.345200    0.265934     0.007504
AU670   AU        0.391120    0.306544    0.264758     0.007504
AU671   AU        0.390217    0.344882    0.227043     0.007504
AU672   AU        0.426302    0.306120    0.224066     0.007504
AU673   AU        0.426578    0.345468    0.266237     0.007504
AU674   AU        0.462628    0.307419    0.264254     0.007504
PD675   PD        0.466256    0.343843    0.227405     0.005394
AU676   AU        0.499007    0.303394    0.227380     0.007504
AU677   AU        0.500637    0.345266    0.267479     0.007504
AU678   AU        0.533899    0.307952    0.264274     0.007504
AU679   AU        0.531691    0.345824    0.226501     0.007504
AU680   AU        0.573432    0.306588    0.227772     0.007504
AU681   AU        0.570493    0.346020    0.267559     0.007504
AU682   AU        0.607767    0.304903    0.264521     0.007504
AU683   AU        0.608656    0.346251    0.226749     0.007504
PD684   PD        0.644873    0.308210    0.228867     0.005394
AU685   AU        0.643518    0.344103    0.266932     0.007504
AU686   AU        0.681435    0.308633    0.264915     0.007504
PD687   PD        0.677638    0.347826    0.228561     0.005394
PD688   PD        0.714778    0.307580    0.227268     0.005394
PD689   PD        0.715710    0.347660    0.262801     0.005394
PD690   PD        0.750432    0.308259    0.262532     0.005394
PD691   PD        0.748221    0.345059    0.224466     0.005394
PD692   PD        0.782963    0.348426    0.263158     0.005394
PD693   PD        0.037322    0.381117    0.266807     0.005394
PD694   PD        0.073554    0.383294    0.230922     0.005394
PD695   PD        0.071898    0.421586    0.266193     0.005394
PD696   PD        0.107576    0.384635    0.264475     0.005394
PD697   PD        0.107351    0.423298    0.228061     0.005394
PD698   PD        0.141558    0.383224    0.227145     0.005394
PD699   PD        0.142437    0.422145    0.265772     0.005394
AU700   AU        0.177120    0.384478    0.264955     0.007504
PD701   PD        0.175076    0.423227    0.225060     0.005394
AU702   AU        0.211261    0.381837    0.227399     0.007504
AU703   AU        0.211042    0.423104    0.262331     0.007504
AU704   AU        0.248182    0.384774    0.263375     0.007504
AU705   AU        0.246019    0.424652    0.225976     0.007504
AU706   AU        0.283421    0.383345    0.227023     0.007504
AU707   AU        0.282996    0.422965    0.262344     0.007504
AU708   AU        0.319398    0.384444    0.264360     0.007504
AU709   AU        0.318846    0.420638    0.226176     0.007504
AU710   AU        0.354911    0.385807    0.228138     0.007504
AU711   AU        0.356043    0.423058    0.265745     0.007504
AU712   AU        0.391002    0.383222    0.265912     0.007504
AU713   AU        0.392768    0.420025    0.225724     0.007504
AU714   AU        0.431041    0.381481    0.223638     0.007504
AU715   AU        0.427076    0.421310    0.265279     0.007504
AU716   AU        0.464495    0.379614    0.266380     0.007504
AU717   AU        0.464989    0.419942    0.230064     0.007504
AU718   AU        0.499009    0.383688    0.228628     0.007504
AU719   AU        0.499973    0.423296    0.268317     0.007504
AU720   AU        0.533589    0.384374    0.268210     0.007504
PD721   PD        0.534287    0.422735    0.228725     0.005394
AU722   AU        0.571147    0.382460    0.228721     0.007504
AU723   AU        0.572099    0.422338    0.270324     0.007504
AU724   AU        0.609879    0.382918    0.266239     0.007504
AU725   AU        0.607925    0.423217    0.229497     0.007504
PD726   PD        0.643901    0.386693    0.226147     0.005394
AU727   AU        0.644199    0.422498    0.264109     0.007504
PD728   PD        0.678493    0.384768    0.263551     0.005394
PD729   PD        0.680499    0.424707    0.226605     0.005394
AU730   AU        0.714153    0.382615    0.224852     0.007504
AU731   AU        0.716051    0.421776    0.264835     0.007504
PD732   PD        0.750412    0.386039    0.264446     0.005394
AU733   AU        0.749148    0.425332    0.222877     0.007504
PD734   PD        0.783734    0.384595    0.224683     0.005394
PD735   PD        0.786950    0.421778    0.261244     0.005394
PD736   PD        0.819569    0.385332    0.262468     0.005394
PD737   PD        0.036395    0.462742    0.269169     0.005394
PD738   PD        0.073945    0.458330    0.229926     0.005394
AU739   AU        0.071147    0.498057    0.263990     0.007504
PD740   PD        0.107753    0.461374    0.266764     0.005394
AU741   AU        0.108188    0.497634    0.229735     0.007504
PD742   PD        0.141716    0.458558    0.226484     0.005394
PD743   PD        0.140370    0.500664    0.266088     0.005394
AU744   AU        0.175599    0.461280    0.264959     0.007504
AU745   AU        0.174978    0.498399    0.225988     0.007504
AU746   AU        0.212352    0.462061    0.224965     0.007504
AU747   AU        0.210767    0.499887    0.264735     0.007504
AU748   AU        0.245552    0.460175    0.267903     0.007504
AU749   AU        0.245165    0.501836    0.225888     0.007504
AU750   AU        0.284119    0.459057    0.224403     0.007504
AU751   AU        0.282380    0.498729    0.266057     0.007504
AU752   AU        0.317648    0.461912    0.263934     0.007504
AU753   AU        0.319076    0.498896    0.225825     0.007504
AU754   AU        0.356201    0.460956    0.226826     0.007504
AU755   AU        0.354954    0.500895    0.264847     0.007504
AU756   AU        0.393956    0.461324    0.266188     0.007504
AU757   AU        0.391414    0.501724    0.228832     0.007504
AU758   AU        0.427212    0.460119    0.227173     0.007504
AU759   AU        0.429245    0.498753    0.267055     0.007504
AU760   AU        0.461474    0.459588    0.266980     0.007504
AU761   AU        0.462709    0.499169    0.227627     0.007504
AU762   AU        0.497311    0.458669    0.228058     0.007504
AU763   AU        0.497462    0.502098    0.267756     0.007504
AU764   AU        0.534182    0.461422    0.265941     0.007504
AU765   AU        0.533100    0.498921    0.230180     0.007504
AU766   AU        0.569439    0.460840    0.229735     0.007504
AU767   AU        0.569390    0.502317    0.267256     0.007504
AU768   AU        0.607950    0.462817    0.265118     0.007504
AU769   AU        0.606232    0.501370    0.229758     0.007504
AU770   AU        0.643028    0.463081    0.227598     0.007504
AU771   AU        0.643662    0.501154    0.265375     0.007504
AU772   AU        0.678167    0.463451    0.265688     0.007504
PD773   PD        0.677324    0.505759    0.227227     0.005394
AU774   AU        0.714481    0.462038    0.228672     0.007504
PD775   PD        0.712794    0.502187    0.265321     0.005394
AU776   AU        0.753843    0.461415    0.263730     0.007504
PD777   PD        0.750687    0.503232    0.229101     0.005394
PD778   PD        0.783899    0.464717    0.221169     0.005394
PD779   PD        0.785459    0.501227    0.264253     0.005394
PD780   PD        0.816386    0.460743    0.262081     0.005394
PD781   PD        0.036515    0.538530    0.264966     0.005394
PD782   PD        0.071831    0.537631    0.227358     0.005394
PD783   PD        0.069747    0.576315    0.264118     0.005394
PD784   PD        0.104963    0.535814    0.265337     0.005394
PD785   PD        0.108920    0.575250    0.229317     0.005394
PD786   PD        0.141924    0.539258    0.226798     0.005394
PD787   PD        0.142672    0.575175    0.267250     0.005394
AU788   AU        0.175823    0.536412    0.265985     0.007504
PD789   PD        0.175776    0.579071    0.227631     0.005394
AU790   AU        0.211685    0.539251    0.226558     0.007504
AU791   AU        0.210135    0.576856    0.265243     0.007504
AU792   AU        0.246428    0.537439    0.266167     0.007504
AU793   AU        0.249494    0.577245    0.228713     0.007504
AU794   AU        0.284232    0.537612    0.227313     0.007504
AU795   AU        0.282552    0.576606    0.266632     0.007504
AU796   AU        0.319519    0.536810    0.263850     0.007504
AU797   AU        0.320015    0.579907    0.228312     0.007504
AU798   AU        0.355099    0.539019    0.226975     0.007504
AU799   AU        0.352747    0.576192    0.268191     0.007504
AU800   AU        0.391838    0.540299    0.268592     0.007504
AU801   AU        0.389655    0.581150    0.231188     0.007504
AU802   AU        0.428361    0.539800    0.227085     0.007504
AU803   AU        0.428646    0.579955    0.266156     0.007504
AU804   AU        0.463585    0.539383    0.267406     0.007504
AU805   AU        0.465314    0.578957    0.227068     0.007504
AU806   AU        0.500994    0.540325    0.230707     0.007504
AU807   AU        0.499343    0.577723    0.263545     0.007504
AU808   AU        0.536642    0.540219    0.266478     0.007504
AU809   AU        0.536635    0.579319    0.226385     0.007504
AU810   AU        0.569864    0.539103    0.227777     0.007504
PD811   PD        0.569853    0.580973    0.263107     0.005394
AU812   AU        0.605409    0.540910    0.263106     0.007504
AU813   AU        0.605478    0.580057    0.227600     0.007504
AU814   AU        0.641513    0.540664    0.230238     0.007504
AU815   AU        0.643087    0.579066    0.266672     0.007504
AU816   AU        0.679604    0.540969    0.269028     0.007504
PD817   PD        0.679751    0.580743    0.227758     0.005394
PD818   PD        0.711662    0.539235    0.226450     0.005394
PD819   PD        0.713125    0.580881    0.265833     0.005394
PD820   PD        0.747659    0.540618    0.264161     0.005394
PD821   PD        0.745611    0.576162    0.224960     0.005394
PD822   PD        0.783730    0.541739    0.227898     0.005394
PD823   PD        0.785511    0.578873    0.263968     0.005394
PD824   PD        0.817807    0.539035    0.266960     0.005394
PD825   PD        0.073592    0.654020    0.267986     0.005394
AU826   AU        0.107570    0.614120    0.265281     0.007504
PD827   PD        0.108225    0.651389    0.228372     0.005394
PD828   PD        0.142431    0.612854    0.228533     0.005394
PD829   PD        0.141059    0.653879    0.269015     0.005394
AU830   AU        0.177388    0.614777    0.267008     0.007504
PD831   PD        0.179917    0.649004    0.228644     0.005394
AU832   AU        0.214674    0.613489    0.226608     0.007504
AU833   AU        0.212735    0.654759    0.267877     0.007504
AU834   AU        0.247673    0.616656    0.265525     0.007504
PD835   PD        0.248045    0.654393    0.227397     0.005394
AU836   AU        0.284051    0.616040    0.227320     0.007504
AU837   AU        0.282953    0.653324    0.264304     0.007504
AU838   AU        0.320215    0.618437    0.267606     0.007504
AU839   AU        0.317904    0.655127    0.224591     0.007504
AU840   AU        0.353545    0.616848    0.224685     0.007504
AU841   AU        0.355362    0.652455    0.264436     0.007504
AU842   AU        0.391240    0.617872    0.266410     0.007504
AU843   AU        0.390416    0.651773    0.224098     0.007504
AU844   AU        0.429436    0.615889    0.226018     0.007504
AU845   AU        0.426294    0.658185    0.264067     0.007504
AU846   AU        0.463164    0.620138    0.267312     0.007504
AU847   AU        0.463422    0.653520    0.225911     0.007504
AU848   AU        0.499527    0.617707    0.228168     0.007504
AU849   AU        0.501283    0.655764    0.266144     0.007504
AU850   AU        0.533403    0.614851    0.266431     0.007504
AU851   AU        0.531730    0.657250    0.224892     0.007504
AU852   AU        0.569943    0.619343    0.228006     0.007504
AU853   AU        0.568434    0.656051    0.266088     0.007504
PD854   PD        0.605381    0.617457    0.265860     0.005394
PD855   PD        0.605169    0.655063    0.225538     0.005394
AU856   AU        0.641152    0.616527    0.225979     0.007504
AU857   AU        0.641394    0.655521    0.261724     0.007504
PD858   PD        0.679009    0.617318    0.264552     0.005394
AU859   AU        0.676037    0.654447    0.225879     0.007504
PD860   PD        0.711824    0.618318    0.228395     0.005394
PD861   PD        0.711377    0.655990    0.264886     0.005394
PD862   PD        0.751059    0.615206    0.262743     0.005394
PD863   PD        0.747991    0.653405    0.227361     0.005394
PD864   PD        0.783937    0.651339    0.263941     0.005394
PD865   PD        0.110142    0.692269    0.265878     0.005394
PD866   PD        0.144362    0.688910    0.230181     0.005394
PD867   PD        0.144923    0.728553    0.267871     0.005394
PD868   PD        0.179854    0.691535    0.266840     0.005394
PD869   PD        0.178200    0.731895    0.228113     0.005394
AU870   AU        0.213226    0.691401    0.229192     0.007504
PD871   PD        0.211579    0.730288    0.269988     0.005394
PD872   PD        0.248706    0.693563    0.267231     0.005394
PD873   PD        0.248202    0.729250    0.230663     0.005394
AU874   AU        0.283516    0.692302    0.226004     0.007504
PD875   PD        0.285011    0.729664    0.268149     0.005394
AU876   AU        0.316477    0.690922    0.265387     0.007504
PD877   PD        0.317500    0.730141    0.226236     0.005394
AU878   AU        0.354274    0.693967    0.227262     0.007504
AU879   AU        0.352736    0.730644    0.264414     0.007504
AU880   AU        0.390840    0.691839    0.261358     0.007504
PD881   PD        0.390978    0.728385    0.223200     0.005394
PD882   PD        0.424291    0.692274    0.223552     0.005394
AU883   AU        0.426378    0.733225    0.268344     0.007504
AU884   AU        0.463184    0.694967    0.262925     0.007504
AU885   AU        0.459063    0.731972    0.226070     0.007504
PD886   PD        0.497268    0.693580    0.222252     0.005394
AU887   AU        0.496478    0.735302    0.263261     0.007504
AU888   AU        0.532479    0.697832    0.262910     0.007504
PD889   PD        0.533889    0.734828    0.225015     0.005394
PD890   PD        0.566492    0.695012    0.224331     0.005394
PD891   PD        0.567550    0.733303    0.260682     0.005394
AU892   AU        0.604717    0.696015    0.266010     0.007504
PD893   PD        0.606144    0.733619    0.227219     0.005394
AU894   AU        0.641090    0.693686    0.225120     0.007504
PD895   PD        0.641099    0.731086    0.264121     0.005394
PD896   PD        0.676726    0.692594    0.264353     0.005394
PD897   PD        0.678978    0.732749    0.227977     0.005394
PD898   PD        0.713194    0.691450    0.226600     0.005394
PD899   PD        0.712456    0.730877    0.265888     0.005394
PD900   PD        0.748692    0.692016    0.262092     0.005394
PD901   PD        0.179213    0.769064    0.264245     0.005394
PD902   PD        0.214895    0.766286    0.231198     0.005394
PD903   PD        0.214174    0.806687    0.267825     0.005394
PD904   PD        0.249246    0.766219    0.268377     0.005394
PD905   PD        0.249724    0.804146    0.229975     0.005394
PD906   PD        0.282354    0.765382    0.230516     0.005394
PD907   PD        0.284094    0.803516    0.267563     0.005394
PD908   PD        0.319229    0.768859    0.264735     0.005394
PD909   PD        0.318037    0.804152    0.225376     0.005394
PD910   PD        0.354759    0.768016    0.226568     0.005394
PD911   PD        0.354068    0.804359    0.264295     0.005394
PD912   PD        0.390520    0.768432    0.263939     0.005394
PD913   PD        0.389782    0.807783    0.228099     0.005394
AU914   AU        0.425065    0.768945    0.227583     0.007504
PD915   PD        0.427615    0.809727    0.262754     0.005394
AU916   AU        0.461061    0.771355    0.265363     0.007504
PD917   PD        0.459352    0.807398    0.225450     0.005394
PD918   PD        0.493475    0.767877    0.224156     0.005394
PD919   PD        0.495608    0.808894    0.262872     0.005394
AU920   AU        0.533090    0.773778    0.263436     0.007504
PD921   PD        0.528126    0.810155    0.227836     0.005394
PD922   PD        0.569060    0.771764    0.227552     0.005394
PD923   PD        0.568094    0.809778    0.267235     0.005394
AU924   AU        0.605311    0.768248    0.263389     0.007504
PD925   PD        0.605552    0.811145    0.229524     0.005394
PD926   PD        0.640521    0.771127    0.225134     0.005394
PD927   PD        0.640602    0.808425    0.268361     0.005394
PD928   PD        0.675992    0.769152    0.265686     0.005394
PD929   PD        0.248145    0.842057    0.269455     0.005394
PD930   PD        0.317500    0.843771    0.265923     0.005394
PD931   PD        0.351642    0.839006    0.229321     0.005394
PD932   PD        0.352972    0.880862    0.267108     0.005394
AU933   AU        0.388583    0.845140    0.266732     0.007504
PD934   PD        0.426644    0.847145    0.226553     0.005394
PD935   PD        0.425394    0.880541    0.267853     0.005394
PD936   PD        0.460262    0.844040    0.263070     0.005394
PD937   PD        0.495667    0.850979    0.225838     0.005394
PD938   PD        0.494300    0.885359    0.273070     0.005394
PD939   PD        0.528735    0.850064    0.265950     0.005394
PD940   PD        0.604159    0.843474    0.273744     0.005394
PD941   PD        0.285655    0.040138    0.338810     0.005394
PD942   PD        0.321453    0.041722    0.305536     0.005394
PD943   PD        0.356705    0.040851    0.345191     0.005394
PD944   PD        0.395236    0.041649    0.306422     0.005394
PD945   PD        0.428724    0.039739    0.343131     0.005394
PD946   PD        0.467070    0.038987    0.303751     0.005394
PD947   PD        0.501369    0.041547    0.342915     0.005394
PD948   PD        0.535951    0.042016    0.309543     0.005394
PD949   PD        0.571700    0.042875    0.340274     0.005394
PD950   PD        0.180336    0.114206    0.306851     0.005394
PD951   PD        0.214238    0.114068    0.345640     0.005394
PD952   PD        0.251427    0.076869    0.344486     0.005394
PD953   PD        0.251737    0.115077    0.305187     0.005394
PD954   PD        0.289266    0.081036    0.304410     0.005394
PD955   PD        0.285338    0.114113    0.344945     0.005394
PD956   PD        0.319577    0.077906    0.343823     0.005394
AU957   AU        0.324077    0.115532    0.304428     0.007504
PD958   PD        0.357283    0.077090    0.306725     0.005394
PD959   PD        0.356796    0.115912    0.342862     0.005394
PD960   PD        0.392183    0.077949    0.342208     0.005394
AU961   AU        0.391331    0.116103    0.302920     0.007504
AU962   AU        0.431027    0.078687    0.304192     0.007504
PD963   PD        0.432487    0.114066    0.342822     0.005394
PD964   PD        0.466940    0.074982    0.340677     0.005394
AU965   AU        0.466335    0.115418    0.302794     0.007504
PD966   PD        0.501848    0.078495    0.304870     0.005394
AU967   AU        0.502407    0.115347    0.342462     0.007504
PD968   PD        0.537440    0.080520    0.343460     0.005394
PD969   PD        0.537664    0.117680    0.304778     0.005394
PD970   PD        0.572221    0.079951    0.303664     0.005394
PD971   PD        0.576303    0.115536    0.345013     0.005394
AU972   AU        0.610129    0.076352    0.339183     0.007504
PD973   PD        0.608402    0.114947    0.304893     0.005394
PD974   PD        0.644716    0.112792    0.342721     0.005394
PD975   PD        0.678871    0.117509    0.302721     0.005394
PD976   PD        0.109331    0.190514    0.304441     0.005394
PD977   PD        0.144377    0.150701    0.302805     0.005394
PD978   PD        0.144959    0.188412    0.340648     0.005394
PD979   PD        0.179732    0.153580    0.340889     0.005394
PD980   PD        0.181774    0.188492    0.302436     0.005394
PD981   PD        0.213118    0.151706    0.304832     0.005394
PD982   PD        0.213556    0.192441    0.339821     0.005394
AU983   AU        0.248853    0.149474    0.343846     0.007504
AU984   AU        0.247665    0.191191    0.299198     0.007504
AU985   AU        0.286082    0.150830    0.305320     0.007504
AU986   AU        0.283126    0.189144    0.339935     0.007504
PD987   PD        0.320102    0.151744    0.343491     0.005394
AU988   AU        0.320258    0.187540    0.304486     0.007504
AU989   AU        0.357493    0.155949    0.305642     0.007504
AU990   AU        0.353689    0.192790    0.342596     0.007504
AU991   AU        0.393026    0.151410    0.342525     0.007504
AU992   AU        0.394279    0.191005    0.306768     0.007504
PD993   PD        0.429927    0.154855    0.303708     0.005394
AU994   AU        0.430318    0.188827    0.345080     0.007504
AU995   AU        0.464572    0.150752    0.342265     0.007504
AU996   AU        0.464558    0.191086    0.306328     0.007504
AU997   AU        0.503464    0.153627    0.301062     0.007504
AU998   AU        0.499822    0.191411    0.340464     0.007504
PD999   PD        0.538062    0.152837    0.341009     0.005394
AU1000   AU        0.537367    0.190818    0.303506     0.007504
PD1001   PD        0.572450    0.154760    0.303935     0.005394
AU1002   AU        0.571628    0.194655    0.340358     0.007504
AU1003   AU        0.607381    0.156157    0.341924     0.007504
PD1004   PD        0.610257    0.192660    0.304558     0.005394
PD1005   PD        0.642333    0.154037    0.303855     0.005394
PD1006   PD        0.644334    0.192066    0.342004     0.005394
PD1007   PD        0.676992    0.152494    0.341908     0.005394
PD1008   PD        0.681197    0.189795    0.302009     0.005394
PD1009   PD        0.716936    0.153020    0.301386     0.005394
AU1010   AU        0.716070    0.192958    0.340506     0.007504
AU1011   AU        0.753344    0.193586    0.300986     0.007504
PD1012   PD        0.072520    0.267019    0.342387     0.005394
AU1013   AU        0.106312    0.228730    0.341402     0.007504
PD1014   PD        0.107854    0.267179    0.304811     0.005394
PD1015   PD        0.146076    0.226153    0.303573     0.005394
PD1016   PD        0.142123    0.268463    0.344534     0.005394
PD1017   PD        0.178247    0.230006    0.341971     0.005394
AU1018   AU        0.178551    0.267549    0.305329     0.007504
AU1019   AU        0.211908    0.227643    0.302968     0.007504
AU1020   AU        0.213196    0.268128    0.343351     0.007504
AU1021   AU        0.251455    0.228899    0.340270     0.007504
AU1022   AU        0.248124    0.267612    0.302443     0.007504
AU1023   AU        0.285646    0.226738    0.302885     0.007504
AU1024   AU        0.284715    0.268461    0.340687     0.007504
AU1025   AU        0.318869    0.230320    0.342091     0.007504
AU1026   AU        0.321292    0.268127    0.302712     0.007504
AU1027   AU        0.356511    0.228000    0.305206     0.007504
AU1028   AU        0.358150    0.265545    0.342255     0.007504
AU1029   AU        0.394754    0.228906    0.342123     0.007504
AU1030   AU        0.392776    0.269374    0.303273     0.007504
AU1031   AU        0.428964    0.231771    0.303498     0.007504
AU1032   AU        0.426984    0.269901    0.343563     0.007504
AU1033   AU        0.462709    0.230628    0.343107     0.007504
AU1034   AU        0.461917    0.270625    0.303621     0.007504
AU1035   AU        0.500581    0.230439    0.304466     0.007504
AU1036   AU        0.497010    0.268686    0.340309     0.007504
AU1037   AU        0.535464    0.229186    0.342450     0.007504
AU1038   AU        0.537517    0.269323    0.300972     0.007504
AU1039   AU        0.573348    0.230164    0.303821     0.007504
AU1040   AU        0.572897    0.267224    0.341826     0.007504
PD1041   PD        0.609069    0.230166    0.341547     0.005394
PD1042   PD        0.609121    0.268964    0.305365     0.005394
AU1043   AU        0.646380    0.230254    0.302887     0.007504
AU1044   AU        0.645552    0.264795    0.339389     0.007504
PD1045   PD        0.680959    0.229046    0.339378     0.005394
AU1046   AU        0.681985    0.269124    0.304945     0.007504
PD1047   PD        0.714767    0.230772    0.303002     0.005394
AU1048   AU        0.717375    0.267827    0.341280     0.007504
PD1049   PD        0.751424    0.231043    0.340084     0.005394
PD1050   PD        0.749920    0.270639    0.304780     0.005394
PD1051   PD        0.783706    0.271667    0.342632     0.005394
PD1052   PD        0.036187    0.305756    0.341884     0.005394
PD1053   PD        0.039793    0.344449    0.304869     0.005394
PD1054   PD        0.073877    0.305634    0.302746     0.005394
AU1055   AU        0.072142    0.342875    0.342864     0.007504
AU1056   AU        0.107989    0.305427    0.343829     0.007504
PD1057   PD        0.108244    0.342642    0.304006     0.005394
PD1058   PD        0.141505    0.306385    0.304217     0.005394
AU1059   AU        0.142429    0.343795    0.343134     0.007504
PD1060   PD        0.177734    0.305832    0.342627     0.005394
PD1061   PD        0.177286    0.343265    0.304712     0.005394
AU1062   AU        0.212225    0.306349    0.304095     0.007504
AU1063   AU        0.214838    0.345302    0.344269     0.007504
AU1064   AU        0.249201    0.306188    0.338534     0.007504
AU1065   AU        0.249242    0.344845    0.301792     0.007504
AU1066   AU        0.286941    0.306339    0.302275     0.007504
AU1067   AU        0.286377    0.341745    0.341571     0.007504
AU1068   AU        0.322530    0.303787    0.339735     0.007504
AU1069   AU        0.322588    0.342603    0.302724     0.007504
AU1070   AU        0.358188    0.304571    0.302278     0.007504
AU1071   AU        0.355899    0.342574    0.343807     0.007504
AU1072   AU        0.391507    0.306837    0.345960     0.007504
AU1073   AU        0.390941    0.343378    0.305604     0.007504
AU1074   AU        0.427105    0.306903    0.303974     0.007504
AU1075   AU        0.427557    0.345201    0.342783     0.007504
AU1076   AU        0.462408    0.307450    0.343227     0.007504
AU1077   AU        0.462817    0.343926    0.303953     0.007504
AU1078   AU        0.502205    0.308106    0.301403     0.007504
AU1079   AU        0.499800    0.342557    0.340796     0.007504
AU1080   AU        0.538021    0.303586    0.340055     0.007504
AU1081   AU        0.536642    0.345866    0.305334     0.007504
AU1082   AU        0.570743    0.307454    0.305815     0.007504
AU1083   AU        0.573038    0.345269    0.342654     0.007504
AU1084   AU        0.610183    0.307463    0.342794     0.007504
AU1085   AU        0.609229    0.344696    0.306150     0.007504
PD1086   PD        0.645607    0.306609    0.304658     0.005394
AU1087   AU        0.645697    0.345163    0.342231     0.007504
AU1088   AU        0.681900    0.304804    0.342646     0.007504
AU1089   AU        0.682544    0.346055    0.301056     0.007504
AU1090   AU        0.716621    0.308682    0.302281     0.007504
AU1091   AU        0.718235    0.346808    0.342670     0.007504
PD1092   PD        0.750876    0.309254    0.340663     0.005394
AU1093   AU        0.750847    0.346922    0.304309     0.007504
PD1094   PD        0.783676    0.306573    0.303971     0.005394
PD1095   PD        0.786217    0.344066    0.343364     0.005394
PD1096   PD        0.820424    0.308836    0.342045     0.005394
PD1097   PD        0.816477    0.345879    0.299833     0.005394
PD1098   PD        0.039569    0.380942    0.344583     0.005394
PD1099   PD        0.036553    0.421858    0.305508     0.005394
PD1100   PD        0.072394    0.383622    0.302011     0.005394
PD1101   PD        0.070936    0.422465    0.343638     0.005394
AU1102   AU        0.104664    0.379304    0.342188     0.007504
AU1103   AU        0.107072    0.421152    0.301703     0.007504
AU1104   AU        0.140150    0.383508    0.305070     0.007504
AU1105   AU        0.144522    0.422020    0.343704     0.007504
AU1106   AU        0.175968    0.382173    0.342565     0.007504
AU1107   AU        0.176835    0.421568    0.304469     0.007504
AU1108   AU        0.213619    0.382087    0.304209     0.007504
AU1109   AU        0.210161    0.420674    0.342898     0.007504
AU1110   AU        0.251998    0.381885    0.341399     0.007504
AU1111   AU        0.249654    0.418240    0.301500     0.007504
AU1112   AU        0.287187    0.384810    0.301992     0.007504
AU1113   AU        0.285177    0.422508    0.340786     0.007504
AU1114   AU        0.321357    0.381217    0.344596     0.007504
AU1115   AU        0.319755    0.425086    0.301887     0.007504
AU1116   AU        0.356046    0.382882    0.302790     0.007504
AU1117   AU        0.354934    0.422917    0.341244     0.007504
AU1118   AU        0.390086    0.381394    0.345234     0.007504
AU1119   AU        0.390990    0.421486    0.306052     0.007504
AU1120   AU        0.427271    0.382293    0.303942     0.007504
AU1121   AU        0.427168    0.422374    0.343955     0.007504
AU1122   AU        0.464920    0.383690    0.342059     0.007504
AU1123   AU        0.461914    0.421459    0.304360     0.007504
AU1124   AU        0.499456    0.383476    0.305184     0.007504
AU1125   AU        0.498886    0.422084    0.343141     0.007504
AU1126   AU        0.534304    0.381541    0.343896     0.007504
AU1127   AU        0.534792    0.425676    0.306657     0.007504
AU1128   AU        0.573381    0.383328    0.305134     0.007504
AU1129   AU        0.571303    0.423281    0.342887     0.007504
AU1130   AU        0.609302    0.382947    0.343534     0.007504
AU1131   AU        0.607365    0.424110    0.305994     0.007504
AU1132   AU        0.644825    0.383782    0.304543     0.007504
AU1133   AU        0.643850    0.422295    0.340967     0.007504
AU1134   AU        0.680372    0.384477    0.343567     0.007504
AU1135   AU        0.679627    0.423153    0.302489     0.007504
AU1136   AU        0.717406    0.383255    0.302032     0.007504
AU1137   AU        0.718315    0.419877    0.338778     0.007504
PD1138   PD        0.753857    0.384720    0.344842     0.005394
PD1139   PD        0.754135    0.422478    0.301505     0.005394
PD1140   PD        0.786505    0.387038    0.300065     0.005394
AU1141   AU        0.786995    0.423598    0.341673     0.007504
PD1142   PD        0.817085    0.382401    0.341402     0.005394
PD1143   PD        0.821063    0.424592    0.306488     0.005394
PD1144   PD        0.036367    0.460330    0.346373     0.005394
PD1145   PD        0.035724    0.502593    0.308573     0.005394
AU1146   AU        0.070741    0.461038    0.304859     0.007504
PD1147   PD        0.068375    0.501718    0.345107     0.005394
AU1148   AU        0.106150    0.461054    0.343403     0.007504
PD1149   PD        0.102567    0.499426    0.306365     0.005394
AU1150   AU        0.140277    0.461895    0.304963     0.007504
PD1151   PD        0.139217    0.498547    0.344588     0.005394
AU1152   AU        0.176162    0.461305    0.344053     0.007504
AU1153   AU        0.177202    0.498103    0.302876     0.007504
AU1154   AU        0.210267    0.459463    0.303699     0.007504
AU1155   AU        0.211864    0.501406    0.343130     0.007504
AU1156   AU        0.246548    0.457860    0.342482     0.007504
AU1157   AU        0.246775    0.499660    0.304058     0.007504
AU1158   AU        0.282313    0.459504    0.303444     0.007504
AU1159   AU        0.281558    0.497329    0.342018     0.007504
AU1160   AU        0.318415    0.461494    0.340352     0.007504
AU1161   AU        0.319130    0.499398    0.304148     0.007504
AU1162   AU        0.358320    0.460775    0.301922     0.007504
AU1163   AU        0.356001    0.502476    0.342719     0.007504
AU1164   AU        0.390841    0.462547    0.343783     0.007504
AU1165   AU        0.390966    0.499601    0.303549     0.007504
AU1166   AU        0.427669    0.461337    0.308195     0.007504
AU1167   AU        0.428129    0.501994    0.343954     0.007504
AU1168   AU        0.461752    0.463322    0.347054     0.007504
AU1169   AU        0.463153    0.500058    0.306623     0.007504
AU1170   AU        0.499392    0.461797    0.308272     0.007504
AU1171   AU        0.501207    0.501106    0.342804     0.007504
AU1172   AU        0.534975    0.462862    0.344567     0.007504
AU1173   AU        0.534941    0.502702    0.305007     0.007504
AU1174   AU        0.570908    0.464202    0.305864     0.007504
AU1175   AU        0.572594    0.501483    0.342514     0.007504
AU1176   AU        0.606841    0.461335    0.342931     0.007504
AU1177   AU        0.606868    0.501993    0.301265     0.007504
AU1178   AU        0.642984    0.462199    0.302699     0.007504
AU1179   AU        0.641948    0.499336    0.342232     0.007504
AU1180   AU        0.681107    0.461292    0.340297     0.007504
AU1181   AU        0.677250    0.502911    0.303266     0.007504
AU1182   AU        0.716148    0.463767    0.300604     0.007504
AU1183   AU        0.715895    0.499376    0.340823     0.007504
AU1184   AU        0.750002    0.460094    0.338010     0.007504
AU1185   AU        0.750425    0.500736    0.301042     0.007504
PD1186   PD        0.786089    0.462008    0.304499     0.005394
PD1187   PD        0.784818    0.499581    0.339584     0.005394
PD1188   PD        0.824044    0.462866    0.340731     0.005394
PD1189   PD        0.821296    0.498371    0.300920     0.005394
PD1190   PD        0.034592    0.540735    0.345892     0.005394
PD1191   PD        0.037651    0.577914    0.306856     0.005394
PD1192   PD        0.070387    0.538909    0.303892     0.005394
PD1193   PD        0.072635    0.572888    0.344249     0.005394
PD1194   PD        0.103438    0.537259    0.344428     0.005394
PD1195   PD        0.105326    0.576556    0.301973     0.005394
AU1196   AU        0.139458    0.535089    0.304697     0.007504
AU1197   AU        0.138033    0.575421    0.341369     0.007504
AU1198   AU        0.175157    0.538214    0.340503     0.007504
AU1199   AU        0.176121    0.575992    0.306188     0.007504
AU1200   AU        0.211257    0.535757    0.303814     0.007504
AU1201   AU        0.214746    0.575310    0.340483     0.007504
AU1202   AU        0.248327    0.537129    0.341505     0.007504
AU1203   AU        0.248139    0.579118    0.303468     0.007504
AU1204   AU        0.283323    0.540209    0.303367     0.007504
AU1205   AU        0.283577    0.576052    0.346591     0.007504
AU1206   AU        0.318739    0.538829    0.344822     0.007504
AU1207   AU        0.318142    0.576709    0.304466     0.007504
AU1208   AU        0.354937    0.538721    0.305701     0.007504
AU1209   AU        0.356502    0.577991    0.342282     0.007504
AU1210   AU        0.391069    0.539799    0.344835     0.007504
AU1211   AU        0.393422    0.580291    0.304844     0.007504
AU1212   AU        0.427943    0.538958    0.304330     0.007504
AU1213   AU        0.428337    0.579217    0.341786     0.007504
AU1214   AU        0.464235    0.537621    0.343363     0.007504
AU1215   AU        0.462264    0.577248    0.304994     0.007504
AU1216   AU        0.498412    0.539303    0.305039     0.007504
AU1217   AU        0.499206    0.579561    0.342242     0.007504
AU1218   AU        0.536091    0.541605    0.341668     0.007504
AU1219   AU        0.533515    0.578934    0.303189     0.007504
AU1220   AU        0.571093    0.543673    0.302007     0.007504
AU1221   AU        0.568892    0.579694    0.343388     0.007504
AU1222   AU        0.607268    0.540799    0.341824     0.007504
AU1223   AU        0.606241    0.581406    0.303970     0.007504
AU1224   AU        0.642008    0.540242    0.303916     0.007504
AU1225   AU        0.645518    0.578202    0.340755     0.007504
AU1226   AU        0.679794    0.539943    0.341461     0.007504
PD1227   PD        0.679030    0.579304    0.300856     0.005394
PD1228   PD        0.715667    0.540032    0.302625     0.005394
AU1229   AU        0.715962    0.578748    0.341247     0.007504
PD1230   PD        0.749827    0.537831    0.342018     0.005394
AU1231   AU        0.748927    0.579052    0.301637     0.007504
PD1232   PD        0.784563    0.541564    0.302125     0.005394
AU1233   AU        0.783937    0.579199    0.340566     0.007504
PD1234   PD        0.819809    0.535506    0.343036     0.005394
AU1235   AU        0.817109    0.578379    0.304651     0.007504
PD1236   PD        0.038823    0.614208    0.347025     0.005394
PD1237   PD        0.071544    0.614646    0.303400     0.005394
PD1238   PD        0.071689    0.651441    0.345971     0.005394
PD1239   PD        0.102459    0.613151    0.344617     0.005394
PD1240   PD        0.106747    0.650842    0.306991     0.005394
PD1241   PD        0.139120    0.614784    0.303571     0.005394
PD1242   PD        0.141579    0.653346    0.342307     0.005394
AU1243   AU        0.174339    0.612756    0.346131     0.007504
AU1244   AU        0.176090    0.653413    0.305972     0.007504
AU1245   AU        0.211658    0.615272    0.305809     0.007504
AU1246   AU        0.210301    0.655754    0.342070     0.007504
AU1247   AU        0.248547    0.616001    0.345386     0.007504
AU1248   AU        0.249047    0.652658    0.304763     0.007504
AU1249   AU        0.283673    0.615470    0.305751     0.007504
AU1250   AU        0.282974    0.654409    0.343757     0.007504
AU1251   AU        0.322997    0.617610    0.343724     0.007504
AU1252   AU        0.318558    0.652670    0.306023     0.007504
AU1253   AU        0.356965    0.614972    0.305445     0.007504
AU1254   AU        0.357056    0.655609    0.343599     0.007504
AU1255   AU        0.389886    0.616975    0.347023     0.007504
AU1256   AU        0.390183    0.657585    0.304587     0.007504
AU1257   AU        0.426003    0.620624    0.302922     0.007504
AU1258   AU        0.425804    0.654443    0.344349     0.007504
AU1259   AU        0.465082    0.617628    0.341871     0.007504
AU1260   AU        0.462757    0.656966    0.303767     0.007504
AU1261   AU        0.499810    0.619111    0.304197     0.007504
AU1262   AU        0.498124    0.655975    0.343351     0.007504
AU1263   AU        0.533780    0.618448    0.344251     0.007504
AU1264   AU        0.533217    0.655769    0.305277     0.007504
AU1265   AU        0.570575    0.616648    0.304007     0.007504
AU1266   AU        0.569203    0.657216    0.343591     0.007504
AU1267   AU        0.603615    0.616541    0.343469     0.007504
AU1268   AU        0.604317    0.656397    0.305374     0.007504
AU1269   AU        0.640554    0.616417    0.303351     0.007504
AU1270   AU        0.639768    0.656911    0.341928     0.007504
AU1271   AU        0.681525    0.620103    0.342157     0.007504
AU1272   AU        0.677999    0.655365    0.303478     0.007504
AU1273   AU        0.716215    0.616630    0.303548     0.007504
AU1274   AU        0.717108    0.658803    0.340908     0.007504
PD1275   PD        0.750769    0.616687    0.342037     0.005394
PD1276   PD        0.750229    0.655884    0.301594     0.005394
PD1277   PD        0.782464    0.616326    0.303887     0.005394
PD1278   PD        0.782449    0.656785    0.343468     0.005394
PD1279   PD        0.816625    0.620216    0.342763     0.005394
PD1280   PD        0.106453    0.688664    0.345276     0.005394
PD1281   PD        0.105913    0.724044    0.306410     0.005394
PD1282   PD        0.143118    0.692386    0.305742     0.005394
PD1283   PD        0.139905    0.730847    0.343344     0.005394
PD1284   PD        0.175919    0.694115    0.345666     0.005394
AU1285   AU        0.176256    0.728830    0.308231     0.007504
AU1286   AU        0.214399    0.691834    0.304308     0.007504
AU1287   AU        0.215036    0.728202    0.343466     0.007504
PD1288   PD        0.247712    0.691688    0.343832     0.005394
AU1289   AU        0.247630    0.731111    0.304540     0.007504
PD1290   PD        0.281282    0.692623    0.305358     0.005394
AU1291   AU        0.282062    0.733042    0.341322     0.007504
AU1292   AU        0.320499    0.694356    0.341463     0.007504
AU1293   AU        0.319978    0.731888    0.304073     0.007504
AU1294   AU        0.356032    0.696549    0.302834     0.007504
AU1295   AU        0.353965    0.731799    0.344682     0.007504
AU1296   AU        0.389970    0.692903    0.343972     0.007504
AU1297   AU        0.391667    0.730707    0.305058     0.007504
AU1298   AU        0.427418    0.694324    0.303353     0.007504
AU1299   AU        0.424347    0.732635    0.342364     0.007504
AU1300   AU        0.461545    0.694608    0.344129     0.007504
AU1301   AU        0.463400    0.732320    0.304282     0.007504
AU1302   AU        0.499730    0.694677    0.302648     0.007504
AU1303   AU        0.498534    0.732954    0.344648     0.007504
AU1304   AU        0.533344    0.696704    0.344021     0.007504
AU1305   AU        0.533589    0.734888    0.304641     0.007504
AU1306   AU        0.568389    0.694432    0.303869     0.007504
PD1307   PD        0.568959    0.730958    0.342648     0.005394
AU1308   AU        0.605761    0.694572    0.342480     0.007504
AU1309   AU        0.604250    0.732721    0.303870     0.007504
PD1310   PD        0.642583    0.693958    0.301922     0.005394
PD1311   PD        0.641958    0.729371    0.338969     0.005394
AU1312   AU        0.676962    0.694483    0.341804     0.007504
PD1313   PD        0.678663    0.731503    0.303411     0.005394
PD1314   PD        0.712553    0.693215    0.301535     0.005394
PD1315   PD        0.715122    0.735479    0.343876     0.005394
PD1316   PD        0.750462    0.697545    0.342742     0.005394
PD1317   PD        0.746121    0.730687    0.302451     0.005394
PD1318   PD        0.144764    0.767389    0.304601     0.005394
PD1319   PD        0.176628    0.768216    0.343743     0.005394
PD1320   PD        0.177901    0.802830    0.305808     0.005394
PD1321   PD        0.212528    0.767659    0.304019     0.005394
PD1322   PD        0.210986    0.804524    0.343766     0.005394
AU1323   AU        0.248074    0.769826    0.343645     0.007504
PD1324   PD        0.247109    0.805371    0.305979     0.005394
PD1325   PD        0.286740    0.770786    0.303893     0.005394
PD1326   PD        0.281986    0.807660    0.342829     0.005394
AU1327   AU        0.319495    0.772966    0.344771     0.007504
PD1328   PD        0.320504    0.808239    0.303224     0.005394
AU1329   AU        0.354446    0.770411    0.304749     0.007504
AU1330   AU        0.354604    0.808114    0.343184     0.007504
AU1331   AU        0.388526    0.770806    0.346388     0.007504
PD1332   PD        0.391173    0.806140    0.303213     0.005394
PD1333   PD        0.425626    0.773645    0.303205     0.005394
AU1334   AU        0.424188    0.809049    0.343859     0.007504
AU1335   AU        0.461206    0.768154    0.345771     0.007504
AU1336   AU        0.462213    0.808362    0.307010     0.007504
AU1337   AU        0.496400    0.769976    0.302080     0.007504
AU1338   AU        0.496621    0.808670    0.342861     0.007504
AU1339   AU        0.533758    0.771534    0.343917     0.007504
AU1340   AU        0.531007    0.807121    0.302951     0.007504
AU1341   AU        0.567057    0.770917    0.303186     0.007504
PD1342   PD        0.569222    0.807164    0.344062     0.005394
AU1343   AU        0.604949    0.769438    0.343059     0.007504
PD1344   PD        0.606436    0.805331    0.304408     0.005394
PD1345   PD        0.639591    0.768317    0.301102     0.005394
PD1346   PD        0.640643    0.805778    0.343491     0.005394
PD1347   PD        0.674066    0.768769    0.339721     0.005394
PD1348   PD        0.674997    0.805577    0.303429     0.005394
PD1349   PD        0.710338    0.769025    0.302939     0.005394
PD1350   PD        0.246250    0.844013    0.341839     0.005394
PD1351   PD        0.283264    0.843596    0.305473     0.005394
PD1352   PD        0.282347    0.878166    0.343107     0.005394
PD1353   PD        0.317886    0.841147    0.344716     0.005394
PD1354   PD        0.316925    0.879594    0.304744     0.005394
PD1355   PD        0.352934    0.844221    0.303061     0.005394
PD1356   PD        0.352612    0.877684    0.343721     0.005394
PD1357   PD        0.388806    0.844757    0.344441     0.005394
PD1358   PD        0.387659    0.881038    0.306665     0.005394
PD1359   PD        0.427124    0.844358    0.302715     0.005394
PD1360   PD        0.425312    0.882068    0.344503     0.005394
PD1361   PD        0.460943    0.845762    0.343883     0.005394
PD1362   PD        0.458999    0.881574    0.307393     0.005394
PD1363   PD        0.494712    0.845818    0.304099     0.005394
PD1364   PD        0.499460    0.881635    0.343990     0.005394
PD1365   PD        0.534006    0.842494    0.345194     0.005394
PD1366   PD        0.533544    0.879595    0.308612     0.005394
PD1367   PD        0.568428    0.843157    0.308619     0.005394
PD1368   PD        0.570608    0.883876    0.344373     0.005394
PD1369   PD        0.604497    0.844151    0.343514     0.005394
PD1370   PD        0.252261    0.039575    0.379644     0.005394
PD1371   PD        0.283732    0.038721    0.422872     0.005394
AU1372   AU        0.321737    0.037273    0.383755     0.007504
PD1373   PD        0.356286    0.041507    0.422298     0.005394
PD1374   PD        0.394207    0.005553    0.422289     0.005394
AU1375   AU        0.394281    0.041197    0.383593     0.007504
PD1376   PD        0.428873    0.004291    0.383968     0.005394
PD1377   PD        0.429812    0.041862    0.421423     0.005394
PD1378   PD        0.467097    0.003785    0.420501     0.005394
PD1379   PD        0.465234    0.038208    0.378349     0.005394
AU1380   AU        0.503607    0.038484    0.418623     0.007504
PD1381   PD        0.537360    0.042671    0.379811     0.005394
PD1382   PD        0.572807    0.040120    0.416418     0.005394
PD1383   PD        0.610015    0.042911    0.382389     0.005394
PD1384   PD        0.144507    0.115483    0.422412     0.005394
PD1385   PD        0.179692    0.076523    0.422967     0.005394
PD1386   PD        0.180410    0.113445    0.382356     0.005394
PD1387   PD        0.215406    0.075118    0.382633     0.005394
PD1388   PD        0.214357    0.112903    0.423476     0.005394
PD1389   PD        0.248944    0.074279    0.419948     0.005394
PD1390   PD        0.249523    0.116652    0.383470     0.005394
AU1391   AU        0.286958    0.076981    0.382636     0.007504
PD1392   PD        0.284534    0.114144    0.423821     0.005394
PD1393   PD        0.321565    0.076664    0.421953     0.005394
AU1394   AU        0.320873    0.113377    0.381782     0.007504
PD1395   PD        0.357051    0.075265    0.382804     0.005394
AU1396   AU        0.356156    0.113542    0.417206     0.007504
AU1397   AU        0.395310    0.078829    0.422338     0.007504
PD1398   PD        0.394399    0.112761    0.380310     0.005394
PD1399   PD        0.431363    0.076321    0.377772     0.005394
AU1400   AU        0.432047    0.111390    0.419641     0.007504
PD1401   PD        0.466980    0.073261    0.419125     0.005394
AU1402   AU        0.468207    0.114381    0.383118     0.007504
PD1403   PD        0.501651    0.078095    0.381660     0.005394
AU1404   AU        0.502505    0.115338    0.419399     0.007504
AU1405   AU        0.539650    0.078310    0.417653     0.007504
PD1406   PD        0.539023    0.115356    0.382235     0.005394
PD1407   PD        0.572709    0.078083    0.381143     0.005394
AU1408   AU        0.572562    0.114348    0.418424     0.007504
PD1409   PD        0.609605    0.080475    0.420494     0.005394
AU1410   AU        0.609248    0.116412    0.381946     0.007504
PD1411   PD        0.646095    0.077221    0.384529     0.005394
PD1412   PD        0.644767    0.116795    0.421513     0.005394
PD1413   PD        0.680606    0.080787    0.419281     0.005394
PD1414   PD        0.679704    0.116764    0.379073     0.005394
PD1415   PD        0.712179    0.120361    0.417615     0.005394
PD1416   PD        0.074328    0.191107    0.419875     0.005394
PD1417   PD        0.109330    0.149878    0.418113     0.005394
PD1418   PD        0.107819    0.188758    0.378393     0.005394
PD1419   PD        0.143760    0.153317    0.380014     0.005394
AU1420   AU        0.141376    0.190316    0.419014     0.007504
AU1421   AU        0.178666    0.152682    0.418273     0.007504
AU1422   AU        0.178295    0.191786    0.380624     0.007504
PD1423   PD        0.212620    0.152591    0.378631     0.005394
AU1424   AU        0.211815    0.191607    0.417975     0.007504
AU1425   AU        0.249088    0.153843    0.422146     0.007504
AU1426   AU        0.247819    0.189114    0.380642     0.007504
PD1427   PD        0.284154    0.152829    0.383099     0.005394
AU1428   AU        0.285409    0.191955    0.421503     0.007504
AU1429   AU        0.318949    0.148423    0.422265     0.007504
AU1430   AU        0.320819    0.188243    0.382034     0.007504
AU1431   AU        0.356265    0.151421    0.381571     0.007504
AU1432   AU        0.357299    0.190835    0.420523     0.007504
AU1433   AU        0.393059    0.151086    0.419628     0.007504
AU1434   AU        0.392668    0.191015    0.381128     0.007504
AU1435   AU        0.432325    0.151089    0.380666     0.007504
AU1436   AU        0.430044    0.189686    0.416746     0.007504
AU1437   AU        0.465299    0.152157    0.421657     0.007504
AU1438   AU        0.464805    0.189964    0.380418     0.007504
AU1439   AU        0.501977    0.151805    0.380774     0.007504
AU1440   AU        0.502680    0.189953    0.420055     0.007504
AU1441   AU        0.537349    0.152657    0.419472     0.007504
AU1442   AU        0.538628    0.191454    0.380299     0.007504
PD1443   PD        0.574398    0.152021    0.382088     0.005394
AU1444   AU        0.576420    0.191933    0.419486     0.007504
AU1445   AU        0.609806    0.152916    0.420690     0.007504
PD1446   PD        0.609194    0.191467    0.380903     0.005394
AU1447   AU        0.642798    0.155278    0.379827     0.007504
AU1448   AU        0.643605    0.191669    0.417958     0.007504
PD1449   PD        0.677916    0.154926    0.418986     0.005394
PD1450   PD        0.677801    0.191133    0.379735     0.005394
PD1451   PD        0.713636    0.157232    0.379016     0.005394
PD1452   PD        0.715045    0.192583    0.420099     0.005394
PD1453   PD        0.748753    0.158249    0.419409     0.005394
PD1454   PD        0.749506    0.193336    0.379784     0.005394
PD1455   PD        0.782853    0.193557    0.418227     0.005394
PD1456   PD        0.038545    0.264931    0.383042     0.005394
PD1457   PD        0.075638    0.230210    0.381352     0.005394
PD1458   PD        0.073692    0.266532    0.421082     0.005394
PD1459   PD        0.106006    0.228485    0.418787     0.005394
PD1460   PD        0.107742    0.267929    0.381604     0.005394
PD1461   PD        0.142183    0.226135    0.379346     0.005394
PD1462   PD        0.142155    0.266931    0.416211     0.005394
PD1463   PD        0.176996    0.227276    0.418225     0.005394
AU1464   AU        0.177872    0.265639    0.378996     0.007504
AU1465   AU        0.214165    0.229342    0.379105     0.007504
AU1466   AU        0.213928    0.265664    0.418137     0.007504
AU1467   AU        0.247877    0.228791    0.417805     0.007504
AU1468   AU        0.249168    0.269390    0.379056     0.007504
AU1469   AU        0.283904    0.227624    0.380891     0.007504
AU1470   AU        0.283783    0.267107    0.421658     0.007504
AU1471   AU        0.320665    0.232419    0.418334     0.007504
AU1472   AU        0.321272    0.267500    0.379261     0.007504
AU1473   AU        0.355742    0.227914    0.381997     0.007504
AU1474   AU        0.356599    0.268261    0.419929     0.007504
AU1475   AU        0.394043    0.228406    0.419802     0.007504
AU1476   AU        0.392710    0.265592    0.378564     0.007504
AU1477   AU        0.427397    0.228962    0.381163     0.007504
AU1478   AU        0.428648    0.266260    0.420579     0.007504
AU1479   AU        0.466046    0.227595    0.419899     0.007504
AU1480   AU        0.465136    0.266156    0.382365     0.007504
AU1481   AU        0.500281    0.226797    0.380024     0.007504
AU1482   AU        0.502400    0.266755    0.418797     0.007504
AU1483   AU        0.539673    0.225694    0.418710     0.007504
AU1484   AU        0.537372    0.267209    0.380948     0.007504
AU1485   AU        0.574024    0.230850    0.380886     0.007504
AU1486   AU        0.572276    0.267003    0.419350     0.007504
AU1487   AU        0.608987    0.228873    0.421561     0.007504
AU1488   AU        0.610009    0.265616    0.381226     0.007504
PD1489   PD        0.645605    0.228490    0.376540     0.005394
AU1490   AU        0.646950    0.265776    0.419159     0.007504
AU1491   AU        0.679418    0.229624    0.418310     0.007504
AU1492   AU        0.678717    0.267021    0.379868     0.007504
AU1493   AU        0.712116    0.229622    0.380790     0.007504
AU1494   AU        0.716720    0.270444    0.419496     0.007504
PD1495   PD        0.750241    0.229311    0.419854     0.005394
PD1496   PD        0.749169    0.266318    0.382774     0.005394
PD1497   PD        0.783133    0.233646    0.377917     0.005394
PD1498   PD        0.785224    0.268806    0.417218     0.005394
PD1499   PD        0.820442    0.271630    0.381888     0.005394
PD1500   PD        0.038996    0.306086    0.422680     0.005394
PD1501   PD        0.039602    0.343948    0.385819     0.005394
AU1502   AU        0.070542    0.304824    0.382004     0.007504
PD1503   PD        0.071780    0.346058    0.423891     0.005394
AU1504   AU        0.102987    0.306562    0.422166     0.007504
PD1505   PD        0.105483    0.343550    0.384516     0.005394
AU1506   AU        0.142681    0.305640    0.382827     0.007504
PD1507   PD        0.141733    0.342236    0.420758     0.005394
AU1508   AU        0.177232    0.305613    0.420268     0.007504
AU1509   AU        0.177649    0.344354    0.380398     0.007504
AU1510   AU        0.213295    0.305142    0.380839     0.007504
AU1511   AU        0.212896    0.343313    0.418449     0.007504
AU1512   AU        0.248655    0.302569    0.420994     0.007504
AU1513   AU        0.250054    0.342918    0.379833     0.007504
AU1514   AU        0.285760    0.305103    0.379907     0.007504
AU1515   AU        0.285387    0.342339    0.419269     0.007504
AU1516   AU        0.320471    0.302537    0.422295     0.007504
AU1517   AU        0.321138    0.342723    0.382865     0.007504
AU1518   AU        0.354766    0.304701    0.382802     0.007504
AU1519   AU        0.355513    0.340202    0.421787     0.007504
AU1520   AU        0.394868    0.304038    0.419005     0.007504
AU1521   AU        0.391901    0.345026    0.383550     0.007504
AU1522   AU        0.429647    0.305285    0.381770     0.007504
AU1523   AU        0.428863    0.344411    0.418794     0.007504
AU1524   AU        0.465470    0.308419    0.421508     0.007504
AU1525   AU        0.464702    0.345898    0.379775     0.007504
AU1526   AU        0.503114    0.303110    0.379616     0.007504
AU1527   AU        0.501621    0.344702    0.419995     0.007504
AU1528   AU        0.538020    0.306935    0.420342     0.007504
AU1529   AU        0.532812    0.344049    0.380666     0.007504
AU1530   AU        0.574831    0.308677    0.381528     0.007504
AU1531   AU        0.572942    0.345312    0.422227     0.007504
AU1532   AU        0.609011    0.305466    0.420686     0.007504
AU1533   AU        0.610443    0.343698    0.384179     0.007504
AU1534   AU        0.645903    0.309546    0.382502     0.007504
AU1535   AU        0.646207    0.348249    0.421039     0.007504
AU1536   AU        0.683142    0.305158    0.418587     0.007504
PD1537   PD        0.681365    0.345573    0.380162     0.005394
AU1538   AU        0.718096    0.306626    0.380228     0.007504
PD1539   PD        0.716505    0.343547    0.420537     0.005394
PD1540   PD        0.752966    0.309348    0.418520     0.005394
PD1541   PD        0.750777    0.347596    0.381457     0.005394
PD1542   PD        0.786146    0.309444    0.381881     0.005394
PD1543   PD        0.786102    0.346926    0.421675     0.005394
PD1544   PD        0.818076    0.307249    0.419564     0.005394
PD1545   PD        0.822178    0.344299    0.382815     0.005394
PD1546   PD        0.004063    0.420725    0.421899     0.005394
PD1547   PD        0.036355    0.381618    0.424037     0.005394
PD1548   PD        0.036969    0.419637    0.382417     0.005394
PD1549   PD        0.072617    0.383571    0.382046     0.005394
AU1550   AU        0.067926    0.419081    0.424067     0.007504
AU1551   AU        0.107232    0.382110    0.419760     0.007504
AU1552   AU        0.107002    0.421922    0.379998     0.007504
AU1553   AU        0.141309    0.381819    0.381624     0.007504
AU1554   AU        0.141279    0.421064    0.420715     0.007504
AU1555   AU        0.176084    0.380650    0.421291     0.007504
AU1556   AU        0.175951    0.423886    0.382250     0.007504
AU1557   AU        0.214339    0.384059    0.380745     0.007504
AU1558   AU        0.211338    0.420053    0.419568     0.007504
AU1559   AU        0.248644    0.382760    0.422017     0.007504
AU1560   AU        0.247274    0.420020    0.379290     0.007504
AU1561   AU        0.284311    0.383142    0.382046     0.007504
AU1562   AU        0.282528    0.421398    0.417011     0.007504
AU1563   AU        0.318451    0.382567    0.419843     0.007504
AU1564   AU        0.320547    0.421724    0.379616     0.007504
AU1565   AU        0.353522    0.382552    0.383170     0.007504
AU1566   AU        0.352946    0.420145    0.416897     0.007504
AU1567   AU        0.390724    0.383172    0.420507     0.007504
AU1568   AU        0.391632    0.423082    0.380573     0.007504
AU1569   AU        0.426534    0.381813    0.380264     0.007504
AU1570   AU        0.426488    0.422524    0.421721     0.007504
AU1571   AU        0.464617    0.381997    0.422027     0.007504
AU1572   AU        0.461223    0.421760    0.382342     0.007504
AU1573   AU        0.500221    0.383614    0.383098     0.007504
AU1574   AU        0.499762    0.422643    0.421000     0.007504
AU1575   AU        0.537049    0.383836    0.421159     0.007504
AU1576   AU        0.535980    0.422927    0.383337     0.007504
AU1577   AU        0.572623    0.380890    0.381895     0.007504
AU1578   AU        0.571967    0.424401    0.421450     0.007504
AU1579   AU        0.609549    0.385736    0.418702     0.007504
AU1580   AU        0.607630    0.422456    0.379696     0.007504
AU1581   AU        0.643925    0.385488    0.381920     0.007504
AU1582   AU        0.646686    0.424364    0.420397     0.007504
AU1583   AU        0.684909    0.382483    0.417132     0.007504
AU1584   AU        0.680096    0.425025    0.379502     0.007504
AU1585   AU        0.717503    0.384295    0.379427     0.007504
AU1586   AU        0.716735    0.423462    0.420476     0.007504
AU1587   AU        0.751291    0.384163    0.418485     0.007504
PD1588   PD        0.749907    0.422606    0.380215     0.005394
AU1589   AU        0.786769    0.382388    0.382098     0.007504
AU1590   AU        0.784928    0.424740    0.418617     0.007504
PD1591   PD        0.819594    0.384633    0.422439     0.005394
AU1592   AU        0.821679    0.418281    0.383336     0.007504
PD1593   PD        0.854855    0.422909    0.420744     0.005394
PD1594   PD        0.002982    0.458706    0.383548     0.005394
PD1595   PD        0.001230    0.494628    0.424945     0.005394
PD1596   PD        0.036016    0.459186    0.423755     0.005394
PD1597   PD        0.035589    0.497417    0.385442     0.005394
AU1598   AU        0.070462    0.458821    0.383818     0.007504
PD1599   PD        0.068769    0.495588    0.424714     0.005394
AU1600   AU        0.104716    0.457254    0.421773     0.007504
AU1601   AU        0.101850    0.500485    0.383563     0.007504
AU1602   AU        0.139278    0.462247    0.382105     0.007504
AU1603   AU        0.138303    0.496926    0.422147     0.007504
AU1604   AU        0.178282    0.461591    0.420327     0.007504
AU1605   AU        0.176608    0.498783    0.381622     0.007504
AU1606   AU        0.212777    0.459379    0.380664     0.007504
AU1607   AU        0.209574    0.500113    0.422158     0.007504
AU1608   AU        0.245715    0.458550    0.422619     0.007504
AU1609   AU        0.247590    0.497767    0.384664     0.007504
AU1610   AU        0.282557    0.458790    0.379792     0.007504
AU1611   AU        0.282781    0.497605    0.421784     0.007504
AU1612   AU        0.321214    0.459648    0.420564     0.007504
AU1613   AU        0.319473    0.499367    0.383222     0.007504
AU1614   AU        0.354198    0.461178    0.381270     0.007504
AU1615   AU        0.356812    0.500153    0.420291     0.007504
AU1616   AU        0.392914    0.462280    0.418142     0.007504
AU1617   AU        0.391429    0.498129    0.381200     0.007504
AU1618   AU        0.427999    0.461280    0.382375     0.007504
AU1619   AU        0.428106    0.501423    0.423232     0.007504
AU1620   AU        0.464618    0.461774    0.421057     0.007504
AU1621   AU        0.464550    0.501307    0.384112     0.007504
AU1622   AU        0.499907    0.462353    0.381302     0.007504
AU1623   AU        0.501547    0.500378    0.419862     0.007504
AU1624   AU        0.535750    0.461921    0.420351     0.007504
AU1625   AU        0.537551    0.500239    0.382084     0.007504
AU1626   AU        0.571358    0.460353    0.379482     0.007504
AU1627   AU        0.571083    0.498602    0.420188     0.007504
AU1628   AU        0.606978    0.459559    0.415544     0.007504
AU1629   AU        0.607378    0.500040    0.381169     0.007504
AU1630   AU        0.643082    0.460779    0.380904     0.007504
AU1631   AU        0.644271    0.500385    0.418289     0.007504
AU1632   AU        0.682004    0.464877    0.418956     0.007504
AU1633   AU        0.679547    0.501837    0.378634     0.007504
AU1634   AU        0.715896    0.462441    0.379689     0.007504
PD1635   PD        0.717694    0.500393    0.420301     0.005394
AU1636   AU        0.752298    0.463339    0.420475     0.007504
AU1637   AU        0.751747    0.499533    0.381009     0.007504
PD1638   PD        0.784205    0.461157    0.377524     0.005394
PD1639   PD        0.784865    0.501307    0.419888     0.005394
AU1640   AU        0.818010    0.461580    0.420291     0.007504
PD1641   PD        0.818274    0.500770    0.380079     0.005394
PD1642   PD        0.850913    0.459606    0.382603     0.005394
PD1643   PD        0.854722    0.500175    0.419632     0.005394
PD1644   PD        0.035306    0.536606    0.423302     0.005394
PD1645   PD        0.032493    0.578046    0.382900     0.005394
PD1646   PD        0.069079    0.536968    0.385749     0.005394
AU1647   AU        0.068924    0.575804    0.421748     0.007504
AU1648   AU        0.105674    0.538208    0.423874     0.007504
AU1649   AU        0.105841    0.572858    0.383229     0.007504
AU1650   AU        0.140753    0.536081    0.380969     0.007504
PD1651   PD        0.138927    0.576589    0.420993     0.005394
AU1652   AU        0.173596    0.537683    0.420472     0.007504
AU1653   AU        0.172887    0.574659    0.381879     0.007504
AU1654   AU        0.211239    0.539620    0.382128     0.007504
AU1655   AU        0.211721    0.574659    0.421370     0.007504
AU1656   AU        0.247987    0.537016    0.420068     0.007504
AU1657   AU        0.247044    0.576375    0.382407     0.007504
AU1658   AU        0.281960    0.535579    0.382162     0.007504
AU1659   AU        0.285455    0.575729    0.417062     0.007504
AU1660   AU        0.317892    0.536696    0.420904     0.007504
AU1661   AU        0.322075    0.576549    0.382621     0.007504
AU1662   AU        0.355392    0.538402    0.382188     0.007504
AU1663   AU        0.354770    0.577361    0.424580     0.007504
AU1664   AU        0.391746    0.538470    0.422055     0.007504
AU1665   AU        0.391900    0.576291    0.384043     0.007504
AU1666   AU        0.431376    0.541631    0.383830     0.007504
AU1667   AU        0.428435    0.577763    0.421991     0.007504
AU1668   AU        0.466218    0.536961    0.424168     0.007504
AU1669   AU        0.465483    0.579075    0.381229     0.007504
AU1670   AU        0.499673    0.540873    0.381449     0.007504
AU1671   AU        0.499053    0.577896    0.423902     0.007504
AU1672   AU        0.537349    0.535022    0.419163     0.007504
AU1673   AU        0.533927    0.576932    0.383315     0.007504
AU1674   AU        0.572529    0.538711    0.381400     0.007504
AU1675   AU        0.570440    0.577921    0.419084     0.007504
AU1676   AU        0.606814    0.539908    0.418924     0.007504
AU1677   AU        0.607165    0.576597    0.379644     0.007504
AU1678   AU        0.642875    0.538771    0.378415     0.007504
AU1679   AU        0.644036    0.577660    0.417868     0.007504
AU1680   AU        0.681483    0.540659    0.417803     0.007504
AU1681   AU        0.679372    0.577632    0.382695     0.007504
AU1682   AU        0.715976    0.539598    0.380167     0.007504
PD1683   PD        0.716797    0.580722    0.417729     0.005394
PD1684   PD        0.750987    0.537904    0.418732     0.005394
AU1685   AU        0.752071    0.580816    0.380745     0.007504
PD1686   PD        0.785378    0.540476    0.379711     0.005394
PD1687   PD        0.787086    0.576040    0.421401     0.005394
AU1688   AU        0.821176    0.539877    0.418458     0.007504
PD1689   PD        0.816879    0.580025    0.379921     0.005394
PD1690   PD        0.036433    0.615154    0.422983     0.005394
PD1691   PD        0.037790    0.652444    0.385424     0.005394
PD1692   PD        0.069606    0.614399    0.384640     0.005394
PD1693   PD        0.073417    0.653032    0.423569     0.005394
PD1694   PD        0.104435    0.614177    0.423858     0.005394
AU1695   AU        0.106681    0.649899    0.381435     0.007504
PD1696   PD        0.139221    0.612850    0.380377     0.005394
AU1697   AU        0.140054    0.652224    0.420391     0.007504
AU1698   AU        0.174902    0.614403    0.422864     0.007504
AU1699   AU        0.175679    0.650548    0.380354     0.007504
AU1700   AU        0.209811    0.614075    0.384858     0.007504
AU1701   AU        0.211474    0.654349    0.419101     0.007504
AU1702   AU        0.247933    0.614312    0.422334     0.007504
AU1703   AU        0.247411    0.654443    0.383387     0.007504
AU1704   AU        0.288986    0.616769    0.382372     0.007504
AU1705   AU        0.283044    0.651481    0.422295     0.007504
AU1706   AU        0.322568    0.614687    0.423202     0.007504
AU1707   AU        0.321091    0.657436    0.381149     0.007504
AU1708   AU        0.356993    0.614941    0.384188     0.007504
AU1709   AU        0.355702    0.653080    0.422269     0.007504
AU1710   AU        0.392421    0.615961    0.421836     0.007504
AU1711   AU        0.392183    0.653885    0.384958     0.007504
AU1712   AU        0.427992    0.615841    0.384292     0.007504
AU1713   AU        0.427561    0.656796    0.422267     0.007504
AU1714   AU        0.462882    0.618212    0.421024     0.007504
AU1715   AU        0.462889    0.654558    0.383550     0.007504
AU1716   AU        0.499299    0.619013    0.382150     0.007504
AU1717   AU        0.497486    0.657355    0.422917     0.007504
AU1718   AU        0.532777    0.616797    0.420023     0.007504
AU1719   AU        0.531260    0.658599    0.383962     0.007504
AU1720   AU        0.567779    0.616011    0.381677     0.007504
AU1721   AU        0.570526    0.654476    0.420581     0.007504
AU1722   AU        0.606058    0.616995    0.417086     0.007504
AU1723   AU        0.607390    0.656954    0.381389     0.007504
AU1724   AU        0.642665    0.617652    0.378831     0.007504
AU1725   AU        0.643832    0.656275    0.418648     0.007504
AU1726   AU        0.677354    0.618522    0.417731     0.007504
AU1727   AU        0.680054    0.657766    0.379722     0.007504
AU1728   AU        0.717202    0.619016    0.381082     0.007504
AU1729   AU        0.712978    0.657462    0.418763     0.007504
PD1730   PD        0.750852    0.617004    0.420855     0.005394
PD1731   PD        0.749358    0.658229    0.382940     0.005394
PD1732   PD        0.782893    0.621912    0.381363     0.005394
PD1733   PD        0.782556    0.656086    0.421430     0.005394
PD1734   PD        0.820940    0.616108    0.417288     0.005394
PD1735   PD        0.816992    0.655771    0.383274     0.005394
PD1736   PD        0.073380    0.689487    0.382147     0.005394
PD1737   PD        0.076143    0.729107    0.422483     0.005394
PD1738   PD        0.106856    0.691155    0.421206     0.005394
PD1739   PD        0.108182    0.727422    0.384708     0.005394
PD1740   PD        0.138463    0.687910    0.380189     0.005394
PD1741   PD        0.142500    0.730545    0.419601     0.005394
AU1742   AU        0.174010    0.690342    0.420399     0.007504
AU1743   AU        0.176916    0.729459    0.383894     0.007504
PD1744   PD        0.212767    0.692329    0.380538     0.005394
AU1745   AU        0.210942    0.729172    0.421827     0.007504
AU1746   AU        0.247616    0.693941    0.420403     0.007504
AU1747   AU        0.247086    0.731509    0.382344     0.007504
AU1748   AU        0.282562    0.689538    0.380946     0.007504
AU1749   AU        0.283996    0.732996    0.418249     0.007504
AU1750   AU        0.316421    0.693787    0.421781     0.007504
AU1751   AU        0.317331    0.729282    0.381415     0.007504
AU1752   AU        0.356055    0.693572    0.384441     0.007504
AU1753   AU        0.352613    0.733481    0.422783     0.007504
AU1754   AU        0.391188    0.694261    0.422272     0.007504
AU1755   AU        0.390945    0.730257    0.382333     0.007504
AU1756   AU        0.425112    0.693187    0.380825     0.007504
AU1757   AU        0.425976    0.734030    0.420136     0.007504
AU1758   AU        0.462333    0.696869    0.422533     0.007504
AU1759   AU        0.461281    0.731853    0.382552     0.007504
AU1760   AU        0.499343    0.697193    0.383580     0.007504
AU1761   AU        0.498756    0.735845    0.421848     0.007504
AU1762   AU        0.535705    0.696066    0.423439     0.007504
AU1763   AU        0.532323    0.731941    0.382505     0.007504
PD1764   PD        0.567573    0.694916    0.382325     0.005394
AU1765   AU        0.568647    0.735049    0.421737     0.007504
AU1766   AU        0.604423    0.696525    0.420670     0.007504
PD1767   PD        0.604906    0.732521    0.380173     0.005394
AU1768   AU        0.641183    0.696920    0.381726     0.007504
AU1769   AU        0.639556    0.733293    0.417278     0.007504
PD1770   PD        0.676696    0.695452    0.420072     0.005394
PD1771   PD        0.677559    0.733441    0.379496     0.005394
AU1772   AU        0.712100    0.697119    0.381502     0.007504
PD1773   PD        0.710338    0.732240    0.420215     0.005394
PD1774   PD        0.748375    0.696452    0.421602     0.005394
AU1775   AU        0.749968    0.733959    0.382400     0.007504
PD1776   PD        0.784201    0.694583    0.382038     0.005394
PD1777   PD        0.785230    0.732210    0.420054     0.005394
PD1778   PD        0.108272    0.766246    0.421068     0.005394
PD1779   PD        0.141811    0.767034    0.383184     0.005394
PD1780   PD        0.142078    0.803934    0.422954     0.005394
PD1781   PD        0.177230    0.767397    0.421541     0.005394
PD1782   PD        0.174654    0.803650    0.382882     0.005394
PD1783   PD        0.212780    0.768750    0.384109     0.005394
PD1784   PD        0.211946    0.804602    0.424092     0.005394
AU1785   AU        0.246106    0.768334    0.419663     0.007504
PD1786   PD        0.247329    0.806113    0.382316     0.005394
PD1787   PD        0.282454    0.769584    0.382093     0.005394
AU1788   AU        0.277944    0.806840    0.419654     0.007504
AU1789   AU        0.315944    0.770870    0.422085     0.007504
AU1790   AU        0.318681    0.808041    0.385270     0.007504
PD1791   PD        0.351850    0.769954    0.383565     0.005394
PD1792   PD        0.353372    0.808783    0.422393     0.005394
AU1793   AU        0.390446    0.771469    0.421016     0.007504
AU1794   AU        0.390681    0.810884    0.384176     0.007504
PD1795   PD        0.426491    0.770581    0.381707     0.005394
AU1796   AU        0.426772    0.809270    0.422014     0.007504
AU1797   AU        0.462319    0.771222    0.421548     0.007504
PD1798   PD        0.461277    0.809041    0.381298     0.005394
AU1799   AU        0.495436    0.771344    0.381456     0.007504
PD1800   PD        0.494839    0.809837    0.419618     0.005394
AU1801   AU        0.532035    0.774922    0.421712     0.007504
PD1802   PD        0.531334    0.809466    0.384017     0.005394
AU1803   AU        0.568451    0.772367    0.380982     0.007504
PD1804   PD        0.569297    0.810679    0.418889     0.005394
AU1805   AU        0.607036    0.772576    0.418859     0.007504
PD1806   PD        0.606095    0.810565    0.382888     0.005394
PD1807   PD        0.639344    0.770620    0.380421     0.005394
PD1808   PD        0.639717    0.809553    0.422301     0.005394
PD1809   PD        0.674280    0.771273    0.419856     0.005394
PD1810   PD        0.671967    0.808906    0.382493     0.005394
PD1811   PD        0.711196    0.772449    0.380236     0.005394
PD1812   PD        0.708664    0.806200    0.422383     0.005394
PD1813   PD        0.744463    0.771025    0.420151     0.005394
PD1814   PD        0.176151    0.840018    0.419673     0.005394
PD1815   PD        0.211627    0.841019    0.381577     0.005394
PD1816   PD        0.244364    0.846595    0.420324     0.005394
PD1817   PD        0.245896    0.882530    0.382977     0.005394
PD1818   PD        0.280666    0.845484    0.382120     0.005394
PD1819   PD        0.279435    0.882869    0.425595     0.005394
AU1820   AU        0.315843    0.847616    0.423979     0.007504
PD1821   PD        0.317599    0.883018    0.380141     0.005394
PD1822   PD        0.351589    0.845557    0.383542     0.005394
AU1823   AU        0.352458    0.885023    0.421836     0.007504
PD1824   PD        0.389685    0.844818    0.420919     0.005394
PD1825   PD        0.387165    0.881453    0.385834     0.005394
PD1826   PD        0.425552    0.849059    0.384572     0.005394
PD1827   PD        0.422266    0.882677    0.423136     0.005394
PD1828   PD        0.460155    0.848567    0.420778     0.005394
PD1829   PD        0.459417    0.883940    0.381954     0.005394
PD1830   PD        0.496268    0.846637    0.382512     0.005394
PD1831   PD        0.497041    0.885186    0.419455     0.005394
PD1832   PD        0.533583    0.848354    0.418466     0.005394
PD1833   PD        0.533800    0.880981    0.381483     0.005394
PD1834   PD        0.568425    0.842738    0.383070     0.005394
PD1835   PD        0.569167    0.882497    0.420145     0.005394
PD1836   PD        0.605379    0.844483    0.420742     0.005394
PD1837   PD        0.602159    0.878876    0.383657     0.005394
PD1838   PD        0.639051    0.846506    0.381513     0.005394
PD1839   PD        0.673909    0.845212    0.418978     0.005394
PD1840   PD        0.390110    0.921028    0.425060     0.005394
PD1841   PD        0.422008    0.916981    0.384181     0.005394
PD1842   PD        0.457759    0.919038    0.422562     0.005394
PD1843   PD        0.251649    0.041851    0.461467     0.005394
PD1844   PD        0.287428    0.041162    0.501498     0.005394
PD1845   PD        0.320062    0.036139    0.459161     0.005394
PD1846   PD        0.358823    0.002002    0.461633     0.005394
PD1847   PD        0.358888    0.039880    0.497753     0.005394
PD1848   PD        0.392448    0.000769    0.500876     0.005394
PD1849   PD        0.395964    0.037321    0.462519     0.005394
PD1850   PD        0.431087    0.005681    0.460702     0.005394
PD1851   PD        0.431141    0.040297    0.500397     0.005394
PD1852   PD        0.464858    0.003007    0.499432     0.005394
PD1853   PD        0.465700    0.041707    0.460457     0.005394
PD1854   PD        0.497363    0.005249    0.459289     0.005394
PD1855   PD        0.503826    0.040938    0.498750     0.005394
PD1856   PD        0.538688    0.040635    0.458320     0.005394
PD1857   PD        0.572078    0.040533    0.498508     0.005394
PD1858   PD        0.607471    0.043415    0.460167     0.005394
PD1859   PD        0.143989    0.118740    0.496289     0.005394
PD1860   PD        0.180343    0.080631    0.496956     0.005394
PD1861   PD        0.179881    0.117378    0.458365     0.005394
PD1862   PD        0.214838    0.080387    0.460336     0.005394
PD1863   PD        0.215089    0.115726    0.497291     0.005394
PD1864   PD        0.251615    0.078159    0.499074     0.005394
PD1865   PD        0.248693    0.114384    0.460303     0.005394
PD1866   PD        0.287281    0.076635    0.462311     0.005394
PD1867   PD        0.286209    0.112841    0.498081     0.005394
PD1868   PD        0.322724    0.079036    0.497897     0.005394
PD1869   PD        0.321066    0.116412    0.461978     0.005394
PD1870   PD        0.356172    0.076733    0.458831     0.005394
AU1871   AU        0.356013    0.118108    0.499015     0.007504
PD1872   PD        0.395277    0.076992    0.497714     0.005394
AU1873   AU        0.390001    0.112627    0.459513     0.007504
PD1874   PD        0.429583    0.076609    0.461344     0.005394
PD1875   PD        0.427784    0.114685    0.495481     0.005394
PD1876   PD        0.469273    0.077173    0.498174     0.005394
AU1877   AU        0.465593    0.111576    0.460499     0.007504
AU1878   AU        0.503842    0.075405    0.458153     0.007504
AU1879   AU        0.502883    0.114716    0.496212     0.007504
PD1880   PD        0.537957    0.078058    0.499133     0.005394
AU1881   AU        0.538333    0.115452    0.458592     0.007504
PD1882   PD        0.573190    0.079076    0.459068     0.005394
AU1883   AU        0.572476    0.116206    0.498429     0.007504
PD1884   PD        0.607510    0.081194    0.497173     0.005394
PD1885   PD        0.610258    0.117515    0.458722     0.005394
PD1886   PD        0.645478    0.082114    0.458001     0.005394
AU1887   AU        0.643631    0.119462    0.497686     0.007504
PD1888   PD        0.677095    0.080090    0.496330     0.005394
PD1889   PD        0.681843    0.118993    0.459103     0.005394
PD1890   PD        0.714650    0.116695    0.494841     0.005394
PD1891   PD        0.074927    0.189739    0.498728     0.005394
PD1892   PD        0.110511    0.154298    0.498420     0.005394
PD1893   PD        0.107270    0.189136    0.457873     0.005394
PD1894   PD        0.144501    0.153706    0.459238     0.005394
AU1895   AU        0.144181    0.191210    0.497863     0.007504
PD1896   PD        0.179769    0.153972    0.500078     0.005394
PD1897   PD        0.180318    0.189551    0.457999     0.005394
AU1898   AU        0.214066    0.153854    0.459372     0.007504
PD1899   PD        0.216937    0.192456    0.494648     0.005394
AU1900   AU        0.249871    0.156741    0.499815     0.007504
PD1901   PD        0.250147    0.192449    0.457394     0.005394
PD1902   PD        0.285400    0.155453    0.461217     0.005394
AU1903   AU        0.284236    0.191568    0.499257     0.007504
AU1904   AU        0.320683    0.154200    0.500320     0.007504
AU1905   AU        0.321116    0.191105    0.458622     0.007504
AU1906   AU        0.356040    0.154710    0.458288     0.007504
AU1907   AU        0.358150    0.191946    0.499809     0.007504
PD1908   PD        0.392953    0.153863    0.500078     0.005394
AU1909   AU        0.395431    0.188771    0.459848     0.007504
AU1910   AU        0.428966    0.150165    0.459192     0.007504
AU1911   AU        0.428226    0.189668    0.497150     0.007504
AU1912   AU        0.465118    0.150332    0.497603     0.007504
AU1913   AU        0.465312    0.191061    0.459123     0.007504
AU1914   AU        0.500041    0.153128    0.458001     0.007504
AU1915   AU        0.502122    0.192605    0.496646     0.007504
AU1916   AU        0.538358    0.155565    0.497867     0.007504
AU1917   AU        0.537642    0.189516    0.458136     0.007504
AU1918   AU        0.574752    0.152798    0.455962     0.007504
AU1919   AU        0.574229    0.192115    0.495799     0.007504
PD1920   PD        0.610993    0.156979    0.495996     0.005394
PD1921   PD        0.609883    0.193148    0.458781     0.005394
PD1922   PD        0.644609    0.155215    0.456666     0.005394
PD1923   PD        0.645827    0.191769    0.497389     0.005394
PD1924   PD        0.679037    0.153802    0.495981     0.005394
PD1925   PD        0.680649    0.190875    0.458906     0.005394
PD1926   PD        0.715240    0.155599    0.457556     0.005394
PD1927   PD        0.715601    0.192687    0.496339     0.005394
PD1928   PD        0.751197    0.155443    0.495895     0.005394
PD1929   PD        0.751775    0.192099    0.457049     0.005394
PD1930   PD        0.785435    0.196337    0.497944     0.005394
PD1931   PD        0.038259    0.264725    0.458776     0.005394
PD1932   PD        0.074119    0.226386    0.458810     0.005394
PD1933   PD        0.073469    0.265699    0.498850     0.005394
PD1934   PD        0.107037    0.228693    0.501879     0.005394
AU1935   AU        0.108084    0.264034    0.459810     0.007504
AU1936   AU        0.143380    0.226768    0.458143     0.007504
PD1937   PD        0.141562    0.264863    0.498568     0.005394
AU1938   AU        0.179878    0.227468    0.498720     0.007504
AU1939   AU        0.178887    0.264520    0.459820     0.007504
AU1940   AU        0.213135    0.227237    0.457215     0.007504
AU1941   AU        0.214143    0.265497    0.499070     0.007504
AU1942   AU        0.248740    0.228078    0.496593     0.007504
AU1943   AU        0.248448    0.266151    0.459217     0.007504
AU1944   AU        0.285748    0.229910    0.459810     0.007504
AU1945   AU        0.284341    0.265282    0.500282     0.007504
AU1946   AU        0.318093    0.231207    0.501471     0.007504
AU1947   AU        0.323049    0.265475    0.460091     0.007504
AU1948   AU        0.358620    0.227766    0.457785     0.007504
AU1949   AU        0.357704    0.266210    0.499400     0.007504
AU1950   AU        0.393238    0.228980    0.497649     0.007504
AU1951   AU        0.393247    0.266758    0.460377     0.007504
AU1952   AU        0.429093    0.228220    0.457145     0.007504
AU1953   AU        0.426309    0.267055    0.497917     0.007504
AU1954   AU        0.465063    0.227684    0.499157     0.007504
AU1955   AU        0.465919    0.265326    0.458376     0.007504
AU1956   AU        0.502496    0.228443    0.457820     0.007504
AU1957   AU        0.501753    0.267283    0.495426     0.007504
AU1958   AU        0.538911    0.228857    0.496949     0.007504
AU1959   AU        0.538045    0.266633    0.458501     0.007504
AU1960   AU        0.572964    0.228794    0.459746     0.007504
AU1961   AU        0.574170    0.269422    0.497912     0.007504
AU1962   AU        0.610009    0.229367    0.495625     0.007504
AU1963   AU        0.610641    0.267554    0.457877     0.007504
AU1964   AU        0.646308    0.227618    0.458722     0.007504
AU1965   AU        0.645695    0.269124    0.495182     0.007504
PD1966   PD        0.682379    0.232238    0.498991     0.005394
AU1967   AU        0.682810    0.270027    0.456080     0.007504
AU1968   AU        0.716235    0.229050    0.459190     0.007504
PD1969   PD        0.716495    0.271137    0.497918     0.005394
PD1970   PD        0.751053    0.232641    0.496136     0.005394
PD1971   PD        0.751619    0.270156    0.458677     0.005394
PD1972   PD        0.783031    0.232678    0.456815     0.005394
PD1973   PD        0.786344    0.269247    0.496610     0.005394
PD1974   PD        0.820092    0.269791    0.461634     0.005394
PD1975   PD        0.040309    0.302770    0.498754     0.005394
PD1976   PD        0.035444    0.343508    0.461402     0.005394
PD1977   PD        0.071483    0.305787    0.461072     0.005394
PD1978   PD        0.071831    0.341994    0.499092     0.005394
AU1979   AU        0.105999    0.304077    0.497385     0.007504
PD1980   PD        0.105311    0.344692    0.459612     0.005394
AU1981   AU        0.139565    0.303509    0.460280     0.007504
AU1982   AU        0.142258    0.343647    0.500335     0.007504
AU1983   AU        0.178888    0.301757    0.497283     0.007504
AU1984   AU        0.177819    0.340679    0.458905     0.007504
AU1985   AU        0.214506    0.301967    0.458544     0.007504
AU1986   AU        0.214127    0.341039    0.497417     0.007504
AU1987   AU        0.248187    0.303492    0.498142     0.007504
AU1988   AU        0.250760    0.341507    0.458103     0.007504
AU1989   AU        0.285631    0.304230    0.460363     0.007504
AU1990   AU        0.284050    0.343273    0.498927     0.007504
AU1991   AU        0.319171    0.303708    0.499079     0.007504
AU1992   AU        0.320270    0.341360    0.458690     0.007504
AU1993   AU        0.356611    0.304874    0.459774     0.007504
AU1994   AU        0.357321    0.340929    0.497587     0.007504
AU1995   AU        0.394812    0.306335    0.495987     0.007504
AU1996   AU        0.392001    0.344025    0.458927     0.007504
AU1997   AU        0.430111    0.305159    0.456378     0.007504
AU1998   AU        0.431610    0.344382    0.493547     0.007504
AU1999   AU        0.463464    0.306207    0.497935     0.007504
AU2000   AU        0.468555    0.344156    0.458106     0.007504
AU2001   AU        0.499769    0.303746    0.457293     0.007504
AU2002   AU        0.502033    0.345783    0.499043     0.007504
AU2003   AU        0.537156    0.305864    0.495969     0.007504
AU2004   AU        0.537801    0.343611    0.457437     0.007504
AU2005   AU        0.571702    0.305310    0.459272     0.007504
AU2006   AU        0.571043    0.345053    0.496442     0.007504
AU2007   AU        0.611413    0.306633    0.496945     0.007504
AU2008   AU        0.607145    0.346389    0.458118     0.007504
AU2009   AU        0.645371    0.307012    0.454339     0.007504
AU2010   AU        0.646469    0.343681    0.495437     0.007504
AU2011   AU        0.680678    0.307872    0.495940     0.007504
AU2012   AU        0.681887    0.345296    0.458070     0.007504
PD2013   PD        0.718241    0.309968    0.458163     0.005394
PD2014   PD        0.717161    0.346560    0.497782     0.005394
AU2015   AU        0.751960    0.308773    0.498069     0.007504
AU2016   AU        0.751305    0.348402    0.459263     0.007504
PD2017   PD        0.786470    0.306783    0.456685     0.005394
PD2018   PD        0.786135    0.346714    0.496349     0.005394
PD2019   PD        0.819134    0.310643    0.497709     0.005394
PD2020   PD        0.822143    0.348403    0.458857     0.005394
PD2021   PD        0.001088    0.382391    0.463000     0.005394
PD2022   PD        0.003474    0.420463    0.501553     0.005394
PD2023   PD        0.038135    0.379236    0.502078     0.005394
PD2024   PD        0.035537    0.419684    0.464742     0.005394
PD2025   PD        0.070116    0.382091    0.460725     0.005394
AU2026   AU        0.069280    0.421930    0.501587     0.007504
AU2027   AU        0.106014    0.383940    0.499355     0.007504
AU2028   AU        0.107034    0.419763    0.459931     0.007504
AU2029   AU        0.140818    0.381473    0.460681     0.007504
AU2030   AU        0.142230    0.419424    0.498059     0.007504
AU2031   AU        0.177391    0.380862    0.497785     0.007504
AU2032   AU        0.175063    0.420849    0.457888     0.007504
AU2033   AU        0.212948    0.379885    0.460870     0.007504
AU2034   AU        0.212759    0.420935    0.499275     0.007504
AU2035   AU        0.248863    0.382583    0.498878     0.007504
AU2036   AU        0.246050    0.418896    0.460435     0.007504
AU2037   AU        0.286363    0.381112    0.461216     0.007504
AU2038   AU        0.286627    0.420790    0.497263     0.007504
AU2039   AU        0.319015    0.379872    0.497953     0.007504
AU2040   AU        0.319323    0.424126    0.457200     0.007504
AU2041   AU        0.355371    0.383321    0.458417     0.007504
AU2042   AU        0.357932    0.422992    0.499730     0.007504
AU2043   AU        0.391820    0.383093    0.495383     0.007504
AU2044   AU        0.393030    0.422117    0.458499     0.007504
AU2045   AU        0.428735    0.382411    0.458072     0.007504
AU2046   AU        0.431183    0.421863    0.496566     0.007504
AU2047   AU        0.465823    0.383146    0.498481     0.007504
AU2048   AU        0.465152    0.421370    0.456753     0.007504
AU2049   AU        0.503341    0.383588    0.458791     0.007504
AU2050   AU        0.500221    0.421048    0.494798     0.007504
AU2051   AU        0.537545    0.384431    0.497382     0.007504
AU2052   AU        0.534868    0.423972    0.458773     0.007504
AU2053   AU        0.573740    0.385780    0.459996     0.007504
AU2054   AU        0.571609    0.422719    0.495574     0.007504
AU2055   AU        0.609302    0.386708    0.495832     0.007504
AU2056   AU        0.608955    0.424358    0.460609     0.007504
AU2057   AU        0.644497    0.384721    0.461457     0.007504
AU2058   AU        0.644804    0.424590    0.497038     0.007504
AU2059   AU        0.681182    0.384593    0.499438     0.007504
AU2060   AU        0.681565    0.423300    0.458813     0.007504
AU2061   AU        0.716099    0.384447    0.461012     0.007504
AU2062   AU        0.715948    0.422936    0.497870     0.007504
PD2063   PD        0.752121    0.384861    0.500490     0.005394
AU2064   AU        0.750717    0.422499    0.462449     0.007504
PD2065   PD        0.786249    0.385413    0.460113     0.005394
AU2066   AU        0.787394    0.424394    0.496035     0.007504
PD2067   PD        0.821326    0.384913    0.494763     0.005394
PD2068   PD        0.820056    0.423565    0.458147     0.005394
PD2069   PD        0.858356    0.385980    0.457611     0.005394
PD2070   PD        0.853436    0.425203    0.493922     0.005394
PD2071   PD        0.002357    0.457006    0.462352     0.005394
PD2072   PD        0.000714    0.498476    0.500203     0.005394
PD2073   PD        0.033866    0.459910    0.501172     0.005394
AU2074   AU        0.036259    0.497663    0.463638     0.007504
AU2075   AU        0.068468    0.457825    0.462903     0.007504
PD2076   PD        0.070471    0.498645    0.502907     0.005394
AU2077   AU        0.104512    0.459969    0.500728     0.007504
AU2078   AU        0.105943    0.497962    0.462802     0.007504
AU2079   AU        0.142166    0.459521    0.460752     0.007504
AU2080   AU        0.139769    0.498779    0.500463     0.007504
AU2081   AU        0.176460    0.457929    0.500939     0.007504
AU2082   AU        0.174081    0.498618    0.461234     0.007504
AU2083   AU        0.210262    0.459543    0.459894     0.007504
AU2084   AU        0.211193    0.497086    0.496214     0.007504
AU2085   AU        0.247513    0.457748    0.498056     0.007504
AU2086   AU        0.245910    0.496471    0.460549     0.007504
AU2087   AU        0.283157    0.460516    0.455309     0.007504
AU2088   AU        0.283723    0.499063    0.497595     0.007504
AU2089   AU        0.321176    0.459240    0.495750     0.007504
AU2090   AU        0.319535    0.499120    0.458557     0.007504
AU2091   AU        0.355506    0.459995    0.458531     0.007504
AU2092   AU        0.356145    0.499195    0.497367     0.007504
AU2093   AU        0.393706    0.460486    0.497291     0.007504
AU2094   AU        0.391820    0.499122    0.457527     0.007504
AU2095   AU        0.426319    0.462803    0.456857     0.007504
AU2096   AU        0.428649    0.500034    0.498771     0.007504
AU2097   AU        0.463586    0.459194    0.496061     0.007504
AU2098   AU        0.464568    0.498419    0.462030     0.007504
AU2099   AU        0.499622    0.460828    0.459899     0.007504
AU2100   AU        0.502128    0.498904    0.496704     0.007504
AU2101   AU        0.538806    0.460368    0.496644     0.007504
AU2102   AU        0.537944    0.501281    0.459283     0.007504
AU2103   AU        0.574778    0.463762    0.458816     0.007504
AU2104   AU        0.572806    0.503656    0.499155     0.007504
AU2105   AU        0.608490    0.460636    0.500411     0.007504
AU2106   AU        0.609249    0.500714    0.456732     0.007504
AU2107   AU        0.642117    0.462312    0.455892     0.007504
AU2108   AU        0.644549    0.498035    0.494454     0.007504
AU2109   AU        0.680809    0.461954    0.494793     0.007504
AU2110   AU        0.680265    0.503029    0.455916     0.007504
AU2111   AU        0.716971    0.462290    0.458939     0.007504
AU2112   AU        0.715304    0.499956    0.498059     0.007504
PD2113   PD        0.751853    0.461417    0.498446     0.005394
AU2114   AU        0.752747    0.501014    0.458829     0.007504
PD2115   PD        0.787903    0.462834    0.461716     0.005394
PD2116   PD        0.785968    0.499822    0.495736     0.005394
PD2117   PD        0.821734    0.462426    0.497132     0.005394
PD2118   PD        0.822738    0.499893    0.455640     0.005394
PD2119   PD        0.853004    0.463302    0.457493     0.005394
PD2120   PD        0.854522    0.501866    0.493482     0.005394
PD2121   PD        0.002389    0.535720    0.463100     0.005394
PD2122   PD        0.038110    0.537823    0.500084     0.005394
PD2123   PD        0.037119    0.576726    0.462034     0.005394
PD2124   PD        0.071814    0.537697    0.459851     0.005394
PD2125   PD        0.075754    0.575582    0.499944     0.005394
PD2126   PD        0.105067    0.533847    0.501796     0.005394
PD2127   PD        0.105803    0.575817    0.458693     0.005394
AU2128   AU        0.140577    0.537696    0.459887     0.007504
AU2129   AU        0.137220    0.574360    0.499394     0.007504
AU2130   AU        0.176922    0.535949    0.500808     0.007504
AU2131   AU        0.176325    0.574986    0.460139     0.007504
AU2132   AU        0.212480    0.536506    0.458812     0.007504
AU2133   AU        0.210101    0.575353    0.497384     0.007504
AU2134   AU        0.248708    0.537539    0.496677     0.007504
AU2135   AU        0.245750    0.575099    0.457932     0.007504
AU2136   AU        0.283482    0.540369    0.458601     0.007504
AU2137   AU        0.281875    0.576830    0.499053     0.007504
AU2138   AU        0.318630    0.537992    0.497224     0.007504
AU2139   AU        0.320025    0.576303    0.460063     0.007504
AU2140   AU        0.353571    0.536541    0.459106     0.007504
AU2141   AU        0.356061    0.576784    0.498457     0.007504
AU2142   AU        0.390666    0.540114    0.494577     0.007504
AU2143   AU        0.392520    0.578029    0.458533     0.007504
AU2144   AU        0.428422    0.539282    0.461488     0.007504
AU2145   AU        0.427255    0.577360    0.500351     0.007504
AU2146   AU        0.464055    0.540204    0.497980     0.007504
AU2147   AU        0.461994    0.578937    0.460578     0.007504
AU2148   AU        0.501320    0.539544    0.459628     0.007504
AU2149   AU        0.501845    0.578437    0.495714     0.007504
AU2150   AU        0.533375    0.542040    0.495518     0.007504
AU2151   AU        0.536416    0.579051    0.459824     0.007504
AU2152   AU        0.573157    0.540149    0.459972     0.007504
AU2153   AU        0.572235    0.580880    0.494967     0.007504
AU2154   AU        0.609432    0.541592    0.498174     0.007504
AU2155   AU        0.608618    0.578588    0.457170     0.007504
AU2156   AU        0.644673    0.538360    0.458036     0.007504
AU2157   AU        0.645019    0.578600    0.493944     0.007504
AU2158   AU        0.681279    0.538261    0.495686     0.007504
AU2159   AU        0.678996    0.578000    0.455863     0.007504
AU2160   AU        0.716227    0.539617    0.455549     0.007504
AU2161   AU        0.715081    0.575655    0.495635     0.007504
PD2162   PD        0.754079    0.537399    0.492878     0.005394
AU2163   AU        0.751803    0.578631    0.457804     0.007504
PD2164   PD        0.786492    0.539429    0.457105     0.005394
AU2165   AU        0.785282    0.581802    0.494432     0.007504
PD2166   PD        0.821495    0.539048    0.496712     0.005394
PD2167   PD        0.821157    0.579590    0.458579     0.005394
PD2168   PD        0.855187    0.538178    0.457147     0.005394
PD2169   PD        0.040346    0.615276    0.499100     0.005394
PD2170   PD        0.040440    0.652807    0.460396     0.005394
PD2171   PD        0.071770    0.613059    0.459561     0.005394
PD2172   PD        0.073362    0.652645    0.499544     0.005394
PD2173   PD        0.107603    0.615614    0.501038     0.005394
AU2174   AU        0.107755    0.653377    0.462651     0.007504
AU2175   AU        0.141181    0.610405    0.461484     0.007504
PD2176   PD        0.142172    0.651032    0.501175     0.005394
AU2177   AU        0.173568    0.613115    0.497937     0.007504
AU2178   AU        0.174292    0.653354    0.463624     0.007504
AU2179   AU        0.210735    0.614629    0.458912     0.007504
AU2180   AU        0.211175    0.652779    0.498413     0.007504
AU2181   AU        0.248141    0.615529    0.496334     0.007504
AU2182   AU        0.247205    0.653077    0.458817     0.007504
AU2183   AU        0.283967    0.612929    0.458481     0.007504
AU2184   AU        0.282690    0.652232    0.498202     0.007504
AU2185   AU        0.319225    0.615892    0.497861     0.007504
AU2186   AU        0.319473    0.655462    0.458880     0.007504
AU2187   AU        0.357448    0.616407    0.461206     0.007504
AU2188   AU        0.352755    0.654590    0.497586     0.007504
AU2189   AU        0.392500    0.618405    0.498858     0.007504
AU2190   AU        0.391751    0.656334    0.458146     0.007504
AU2191   AU        0.427889    0.616422    0.459074     0.007504
AU2192   AU        0.428576    0.657325    0.496920     0.007504
AU2193   AU        0.462623    0.615925    0.499944     0.007504
AU2194   AU        0.462825    0.656162    0.459524     0.007504
AU2195   AU        0.499426    0.617182    0.459319     0.007504
AU2196   AU        0.498789    0.658156    0.495075     0.007504
AU2197   AU        0.536825    0.617844    0.495699     0.007504
AU2198   AU        0.535719    0.656390    0.457897     0.007504
AU2199   AU        0.571349    0.618828    0.458861     0.007504
AU2200   AU        0.571458    0.657250    0.496124     0.007504
AU2201   AU        0.607724    0.617227    0.495698     0.007504
AU2202   AU        0.608200    0.657732    0.457157     0.007504
AU2203   AU        0.643174    0.616993    0.458460     0.007504
AU2204   AU        0.643930    0.655167    0.495335     0.007504
PD2205   PD        0.679436    0.617854    0.495902     0.005394
PD2206   PD        0.679254    0.655589    0.457663     0.005394
AU2207   AU        0.712650    0.617521    0.455876     0.007504
AU2208   AU        0.714773    0.654711    0.496056     0.007504
PD2209   PD        0.748008    0.618239    0.494592     0.005394
AU2210   AU        0.747075    0.654996    0.456631     0.007504
PD2211   PD        0.785747    0.617198    0.457032     0.005394
AU2212   AU        0.783381    0.656645    0.495465     0.007504
PD2213   PD        0.819512    0.621844    0.497807     0.005394
PD2214   PD        0.816381    0.657052    0.456588     0.005394
PD2215   PD        0.072012    0.692019    0.463058     0.005394
PD2216   PD        0.074453    0.728556    0.501163     0.005394
AU2217   AU        0.108057    0.690369    0.500211     0.007504
PD2218   PD        0.106443    0.730094    0.463613     0.005394
PD2219   PD        0.140181    0.691902    0.458115     0.005394
PD2220   PD        0.141340    0.730438    0.498969     0.005394
AU2221   AU        0.172572    0.691830    0.498720     0.007504
PD2222   PD        0.175680    0.729848    0.460297     0.005394
AU2223   AU        0.212814    0.692470    0.459980     0.007504
AU2224   AU        0.211722    0.728580    0.500958     0.007504
AU2225   AU        0.248468    0.691746    0.496632     0.007504
AU2226   AU        0.245991    0.733590    0.459104     0.007504
AU2227   AU        0.283271    0.692983    0.460310     0.007504
AU2228   AU        0.282027    0.735171    0.499485     0.007504
AU2229   AU        0.320199    0.693847    0.498474     0.007504
AU2230   AU        0.319709    0.731710    0.463454     0.007504
AU2231   AU        0.355865    0.692986    0.461842     0.007504
AU2232   AU        0.354830    0.732047    0.500349     0.007504
AU2233   AU        0.391724    0.692405    0.496814     0.007504
AU2234   AU        0.387836    0.733868    0.460559     0.007504
AU2235   AU        0.426280    0.696462    0.460002     0.007504
AU2236   AU        0.425712    0.734094    0.500452     0.007504
AU2237   AU        0.463654    0.695660    0.499785     0.007504
AU2238   AU        0.464196    0.733941    0.461187     0.007504
AU2239   AU        0.498252    0.697365    0.460283     0.007504
AU2240   AU        0.496123    0.734296    0.500558     0.007504
AU2241   AU        0.535840    0.694671    0.496034     0.007504
PD2242   PD        0.534659    0.733424    0.460810     0.005394
AU2243   AU        0.571233    0.697334    0.459821     0.007504
AU2244   AU        0.571476    0.734008    0.497917     0.007504
AU2245   AU        0.611008    0.693114    0.497528     0.007504
AU2246   AU        0.607532    0.733139    0.458851     0.007504
AU2247   AU        0.641758    0.696358    0.456570     0.007504
AU2248   AU        0.644853    0.732637    0.497726     0.007504
AU2249   AU        0.680048    0.694566    0.497682     0.007504
PD2250   PD        0.676251    0.731735    0.456845     0.005394
PD2251   PD        0.715199    0.695474    0.459513     0.005394
PD2252   PD        0.715223    0.732718    0.498744     0.005394
PD2253   PD        0.748087    0.692304    0.494577     0.005394
PD2254   PD        0.749036    0.732748    0.458617     0.005394
PD2255   PD        0.786016    0.694648    0.457296     0.005394
PD2256   PD        0.782743    0.730351    0.494565     0.005394
PD2257   PD        0.107588    0.768733    0.499214     0.005394
PD2258   PD        0.141795    0.765601    0.458289     0.005394
PD2259   PD        0.144892    0.804896    0.500520     0.005394
PD2260   PD        0.178962    0.766699    0.499630     0.005394
PD2261   PD        0.177644    0.805186    0.458311     0.005394
PD2262   PD        0.209858    0.768673    0.459974     0.005394
AU2263   AU        0.213141    0.805226    0.501263     0.007504
PD2264   PD        0.246425    0.770352    0.499786     0.005394
PD2265   PD        0.246688    0.807248    0.462273     0.005394
PD2266   PD        0.283303    0.771753    0.460716     0.005394
AU2267   AU        0.282355    0.808649    0.502781     0.007504
AU2268   AU        0.319313    0.773783    0.500954     0.007504
AU2269   AU        0.317793    0.809844    0.461385     0.007504
AU2270   AU        0.351743    0.770110    0.459670     0.007504
AU2271   AU        0.352218    0.809004    0.501701     0.007504
AU2272   AU        0.387909    0.772560    0.499534     0.007504
AU2273   AU        0.389178    0.809567    0.461666     0.007504
AU2274   AU        0.426780    0.769709    0.460494     0.007504
AU2275   AU        0.427515    0.810108    0.499982     0.007504
AU2276   AU        0.461609    0.770295    0.500763     0.007504
AU2277   AU        0.460179    0.808195    0.459939     0.007504
AU2278   AU        0.496656    0.771527    0.459761     0.007504
AU2279   AU        0.498881    0.811028    0.498588     0.007504
AU2280   AU        0.535479    0.772810    0.500531     0.007504
AU2281   AU        0.533477    0.813081    0.458541     0.007504
AU2282   AU        0.568810    0.772598    0.458925     0.007504
AU2283   AU        0.569824    0.813347    0.496504     0.007504
AU2284   AU        0.605824    0.772161    0.498323     0.007504
PD2285   PD        0.605301    0.810594    0.458133     0.005394
PD2286   PD        0.640238    0.771761    0.459233     0.005394
PD2287   PD        0.640603    0.809625    0.496963     0.005394
PD2288   PD        0.676803    0.771167    0.497587     0.005394
PD2289   PD        0.675590    0.808677    0.460942     0.005394
PD2290   PD        0.712837    0.768875    0.459261     0.005394
PD2291   PD        0.714366    0.808288    0.497561     0.005394
PD2292   PD        0.748742    0.770785    0.496792     0.005394
PD2293   PD        0.179493    0.843325    0.502832     0.005394
PD2294   PD        0.211200    0.843029    0.462249     0.005394
PD2295   PD        0.246049    0.842710    0.501223     0.005394
PD2296   PD        0.247024    0.879328    0.463360     0.005394
AU2297   AU        0.281664    0.844113    0.463820     0.007504
PD2298   PD        0.281409    0.881409    0.500519     0.005394
PD2299   PD        0.317292    0.846432    0.501000     0.005394
PD2300   PD        0.316788    0.884030    0.463033     0.005394
AU2301   AU        0.354516    0.845644    0.460344     0.007504
PD2302   PD        0.350466    0.883142    0.499044     0.005394
PD2303   PD        0.388248    0.846541    0.498152     0.005394
PD2304   PD        0.389092    0.882709    0.459505     0.005394
AU2305   AU        0.424371    0.846449    0.460298     0.007504
PD2306   PD        0.423583    0.881833    0.498748     0.005394
PD2307   PD        0.461485    0.845699    0.498577     0.005394
PD2308   PD        0.458851    0.879346    0.460134     0.005394
AU2309   AU        0.494902    0.845379    0.457684     0.007504
PD2310   PD        0.496464    0.880944    0.499657     0.005394
PD2311   PD        0.534472    0.847491    0.498987     0.005394
PD2312   PD        0.531101    0.882715    0.460603     0.005394
PD2313   PD        0.568917    0.846896    0.457653     0.005394
PD2314   PD        0.569896    0.883316    0.497609     0.005394
PD2315   PD        0.605803    0.846674    0.496953     0.005394
PD2316   PD        0.603002    0.881464    0.457363     0.005394
PD2317   PD        0.640045    0.846148    0.458591     0.005394
PD2318   PD        0.676502    0.849923    0.496780     0.005394
PD2319   PD        0.351499    0.921009    0.461995     0.005394
PD2320   PD        0.386814    0.916022    0.497719     0.005394
PD2321   PD        0.424909    0.918408    0.464201     0.005394
PD2322   PD        0.463908    0.919373    0.499428     0.005394
PD2323   PD        0.493183    0.918669    0.459630     0.005394
PD2324   PD        0.249782    0.042761    0.536060     0.005394
PD2325   PD        0.286283    0.040323    0.571339     0.005394
PD2326   PD        0.323992    0.041919    0.535924     0.005394
PD2327   PD        0.358826    0.042415    0.575042     0.005394
PD2328   PD        0.392611    0.040223    0.534934     0.005394
PD2329   PD        0.428831    0.002811    0.535021     0.005394
PD2330   PD        0.430441    0.038113    0.573294     0.005394
PD2331   PD        0.467269    0.041022    0.536826     0.005394
PD2332   PD        0.501623    0.042675    0.572823     0.005394
PD2333   PD        0.536499    0.042414    0.537519     0.005394
PD2334   PD        0.573229    0.042618    0.574558     0.005394
PD2335   PD        0.607498    0.042914    0.535248     0.005394
PD2336   PD        0.181041    0.115803    0.535300     0.005394
PD2337   PD        0.214811    0.080688    0.536013     0.005394
PD2338   PD        0.213872    0.114749    0.576171     0.005394
AU2339   AU        0.252447    0.080298    0.574156     0.007504
PD2340   PD        0.250365    0.115993    0.535545     0.005394
AU2341   AU        0.287082    0.077965    0.538439     0.007504
PD2342   PD        0.288552    0.117241    0.577889     0.005394
PD2343   PD        0.321931    0.077735    0.574440     0.005394
AU2344   AU        0.322481    0.116781    0.537306     0.007504
AU2345   AU        0.359174    0.078525    0.536379     0.007504
PD2346   PD        0.356830    0.113391    0.576109     0.005394
PD2347   PD        0.395367    0.077671    0.573098     0.005394
AU2348   AU        0.391531    0.115848    0.535447     0.007504
PD2349   PD        0.429931    0.076742    0.536454     0.005394
PD2350   PD        0.430555    0.115737    0.575341     0.005394
PD2351   PD        0.465352    0.078013    0.574999     0.005394
AU2352   AU        0.464790    0.113469    0.536329     0.007504
PD2353   PD        0.503134    0.080233    0.535114     0.005394
PD2354   PD        0.501830    0.115222    0.576909     0.005394
PD2355   PD        0.537836    0.076686    0.575483     0.005394
AU2356   AU        0.537711    0.117332    0.537907     0.007504
PD2357   PD        0.570873    0.078713    0.536997     0.005394
PD2358   PD        0.571425    0.117803    0.575195     0.005394
PD2359   PD        0.605409    0.080019    0.570486     0.005394
AU2360   AU        0.608139    0.118942    0.533661     0.007504
PD2361   PD        0.641693    0.081151    0.534612     0.005394
PD2362   PD        0.642575    0.116486    0.570947     0.005394
PD2363   PD        0.680579    0.115637    0.535485     0.005394
PD2364   PD        0.108169    0.191669    0.537502     0.005394
PD2365   PD        0.145230    0.154620    0.535977     0.005394
PD2366   PD        0.140861    0.189601    0.576370     0.005394
AU2367   AU        0.174778    0.150589    0.578236     0.007504
PD2368   PD        0.179350    0.189786    0.536928     0.005394
AU2369   AU        0.214505    0.153329    0.537529     0.007504
PD2370   PD        0.212328    0.189286    0.578006     0.005394
AU2371   AU        0.250342    0.151730    0.574984     0.007504
AU2372   AU        0.246451    0.189986    0.539132     0.007504
PD2373   PD        0.284616    0.151529    0.536086     0.005394
PD2374   PD        0.283588    0.189972    0.575113     0.005394
AU2375   AU        0.324041    0.155144    0.576268     0.007504
AU2376   AU        0.319812    0.192162    0.537883     0.007504
PD2377   PD        0.357522    0.155092    0.537807     0.005394
AU2378   AU        0.358911    0.191924    0.576033     0.007504
AU2379   AU        0.393749    0.151121    0.575840     0.007504
AU2380   AU        0.394254    0.190430    0.538231     0.007504
AU2381   AU        0.428778    0.151074    0.537310     0.007504
AU2382   AU        0.429951    0.191661    0.573800     0.007504
PD2383   PD        0.465083    0.153442    0.575926     0.005394
AU2384   AU        0.463075    0.189517    0.535098     0.007504
AU2385   AU        0.501116    0.153678    0.536514     0.007504
AU2386   AU        0.502956    0.192020    0.573441     0.007504
PD2387   PD        0.537596    0.156732    0.573064     0.005394
PD2388   PD        0.537093    0.192537    0.536633     0.005394
PD2389   PD        0.572575    0.157168    0.536623     0.005394
PD2390   PD        0.575101    0.193679    0.573415     0.005394
AU2391   AU        0.607533    0.155445    0.574607     0.007504
AU2392   AU        0.609573    0.190261    0.536407     0.007504
PD2393   PD        0.645740    0.155493    0.537487     0.005394
PD2394   PD        0.643590    0.192704    0.575765     0.005394
AU2395   AU        0.679977    0.156653    0.572581     0.007504
PD2396   PD        0.682483    0.193961    0.534884     0.005394
PD2397   PD        0.714388    0.155108    0.531323     0.005394
PD2398   PD        0.715925    0.194083    0.572235     0.005394
AU2399   AU        0.752229    0.192407    0.538574     0.007504
PD2400   PD        0.039219    0.267689    0.537104     0.005394
PD2401   PD        0.072257    0.228388    0.537908     0.005394
AU2402   AU        0.072979    0.262584    0.577616     0.007504
PD2403   PD        0.108873    0.228760    0.577634     0.005394
PD2404   PD        0.105069    0.266313    0.538422     0.005394
AU2405   AU        0.144209    0.231180    0.537775     0.007504
PD2406   PD        0.141599    0.266882    0.579475     0.005394
AU2407   AU        0.178673    0.225190    0.578496     0.007504
PD2408   PD        0.179774    0.266661    0.539458     0.005394
PD2409   PD        0.212078    0.226283    0.537810     0.005394
AU2410   AU        0.214268    0.264916    0.576984     0.007504
AU2411   AU        0.249220    0.227053    0.579019     0.007504
AU2412   AU        0.248651    0.264439    0.537748     0.007504
AU2413   AU        0.285444    0.228802    0.539810     0.007504
AU2414   AU        0.286483    0.265476    0.578226     0.007504
AU2415   AU        0.323824    0.226960    0.579312     0.007504
AU2416   AU        0.321953    0.265619    0.537396     0.007504
AU2417   AU        0.356907    0.229310    0.536853     0.007504
AU2418   AU        0.356831    0.267933    0.575580     0.007504
AU2419   AU        0.395943    0.230962    0.577426     0.007504
AU2420   AU        0.392950    0.266233    0.536492     0.007504
AU2421   AU        0.428792    0.229832    0.536401     0.007504
AU2422   AU        0.429886    0.266814    0.573880     0.007504
AU2423   AU        0.465637    0.229602    0.573852     0.007504
AU2424   AU        0.462992    0.269203    0.534157     0.007504
AU2425   AU        0.498350    0.230107    0.536101     0.007504
AU2426   AU        0.499744    0.268526    0.573557     0.007504
AU2427   AU        0.539320    0.230470    0.574652     0.007504
AU2428   AU        0.538251    0.268037    0.534818     0.007504
AU2429   AU        0.574747    0.229737    0.534141     0.007504
AU2430   AU        0.574873    0.268188    0.574153     0.007504
AU2431   AU        0.611091    0.230581    0.573406     0.007504
AU2432   AU        0.611202    0.267968    0.534390     0.007504
AU2433   AU        0.645064    0.229435    0.533910     0.007504
AU2434   AU        0.646715    0.267674    0.573818     0.007504
AU2435   AU        0.680634    0.229649    0.574046     0.007504
AU2436   AU        0.681685    0.269361    0.536615     0.007504
AU2437   AU        0.718122    0.232650    0.537733     0.007504
PD2438   PD        0.717864    0.270837    0.574155     0.005394
PD2439   PD        0.755078    0.231618    0.575858     0.005394
PD2440   PD        0.752761    0.270804    0.537335     0.005394
PD2441   PD        0.785009    0.232304    0.534990     0.005394
PD2442   PD        0.787579    0.270394    0.575507     0.005394
PD2443   PD        0.819925    0.272097    0.533639     0.005394
PD2444   PD        0.039975    0.302086    0.581277     0.005394
PD2445   PD        0.040306    0.341973    0.539307     0.005394
PD2446   PD        0.073954    0.304251    0.538559     0.005394
PD2447   PD        0.076853    0.340403    0.578038     0.005394
PD2448   PD        0.111114    0.304567    0.580820     0.005394
AU2449   AU        0.108163    0.342716    0.536924     0.007504
AU2450   AU        0.142243    0.303054    0.538173     0.007504
PD2451   PD        0.140014    0.342840    0.574690     0.005394
AU2452   AU        0.176297    0.307711    0.576420     0.007504
AU2453   AU        0.176341    0.343614    0.538344     0.007504
AU2454   AU        0.214473    0.306321    0.538747     0.007504
AU2455   AU        0.213656    0.343173    0.575562     0.007504
AU2456   AU        0.250332    0.305789    0.576353     0.007504
AU2457   AU        0.249792    0.343301    0.537196     0.007504
AU2458   AU        0.285424    0.305802    0.536156     0.007504
AU2459   AU        0.286136    0.344841    0.576444     0.007504
AU2460   AU        0.321106    0.304133    0.575937     0.007504
AU2461   AU        0.319882    0.343473    0.534985     0.007504
AU2462   AU        0.356586    0.307037    0.539365     0.007504
AU2463   AU        0.356663    0.344880    0.575192     0.007504
AU2464   AU        0.392706    0.307630    0.573103     0.007504
AU2465   AU        0.393531    0.342898    0.535622     0.007504
AU2466   AU        0.429406    0.308854    0.535171     0.007504
AU2467   AU        0.430790    0.343881    0.575686     0.007504
AU2468   AU        0.464718    0.305716    0.577401     0.007504
AU2469   AU        0.465131    0.346809    0.535569     0.007504
AU2470   AU        0.498941    0.306737    0.536726     0.007504
AU2471   AU        0.498219    0.346889    0.574130     0.007504
AU2472   AU        0.537850    0.310077    0.575650     0.007504
AU2473   AU        0.538565    0.345965    0.537150     0.007504
AU2474   AU        0.573383    0.307866    0.537015     0.007504
AU2475   AU        0.576233    0.347119    0.574773     0.007504
AU2476   AU        0.612290    0.307340    0.573273     0.007504
AU2477   AU        0.609827    0.347140    0.531732     0.007504
AU2478   AU        0.646922    0.308583    0.533380     0.007504
AU2479   AU        0.644483    0.348179    0.573937     0.007504
PD2480   PD        0.682023    0.308523    0.574935     0.005394
AU2481   AU        0.683458    0.344412    0.534956     0.007504
AU2482   AU        0.715297    0.306762    0.536732     0.007504
PD2483   PD        0.718943    0.345328    0.574628     0.005394
PD2484   PD        0.751225    0.306468    0.573656     0.005394
PD2485   PD        0.750385    0.346745    0.535874     0.005394
PD2486   PD        0.786297    0.310978    0.536185     0.005394
PD2487   PD        0.784878    0.348741    0.571765     0.005394
PD2488   PD        0.822250    0.307266    0.573417     0.005394
PD2489   PD        0.821328    0.347612    0.537423     0.005394
PD2490   PD        0.036738    0.378552    0.578004     0.005394
AU2491   AU        0.035309    0.421129    0.540254     0.007504
PD2492   PD        0.072416    0.379819    0.541829     0.005394
AU2493   AU        0.072643    0.421330    0.577462     0.007504
PD2494   PD        0.107992    0.382403    0.578016     0.005394
AU2495   AU        0.104803    0.421858    0.537860     0.007504
AU2496   AU        0.141019    0.384348    0.537565     0.007504
AU2497   AU        0.139924    0.422591    0.576431     0.007504
AU2498   AU        0.177204    0.384465    0.575668     0.007504
AU2499   AU        0.179783    0.423035    0.538557     0.007504
AU2500   AU        0.212620    0.380088    0.532516     0.007504
AU2501   AU        0.213478    0.417729    0.577624     0.007504
AU2502   AU        0.248383    0.381372    0.576100     0.007504
AU2503   AU        0.248929    0.421144    0.537927     0.007504
AU2504   AU        0.284642    0.382547    0.536369     0.007504
AU2505   AU        0.286983    0.419348    0.572844     0.007504
AU2506   AU        0.324620    0.383483    0.575824     0.007504
AU2507   AU        0.325217    0.420712    0.537176     0.007504
AU2508   AU        0.358214    0.382289    0.532322     0.007504
AU2509   AU        0.360510    0.419036    0.574455     0.007504
AU2510   AU        0.395653    0.382873    0.575476     0.007504
AU2511   AU        0.393224    0.423238    0.535552     0.007504
AU2512   AU        0.426731    0.379530    0.533739     0.007504
AU2513   AU        0.430368    0.423251    0.571691     0.007504
AU2514   AU        0.464107    0.384343    0.575296     0.007504
AU2515   AU        0.464699    0.419902    0.535709     0.007504
AU2516   AU        0.501431    0.383495    0.535087     0.007504
AU2517   AU        0.501767    0.423289    0.570424     0.007504
AU2518   AU        0.535770    0.384441    0.572985     0.007504
AU2519   AU        0.536675    0.422455    0.533315     0.007504
AU2520   AU        0.573090    0.384978    0.538069     0.007504
AU2521   AU        0.572469    0.421488    0.574162     0.007504
AU2522   AU        0.611261    0.383387    0.575909     0.007504
AU2523   AU        0.610136    0.422566    0.535504     0.007504
AU2524   AU        0.646025    0.386169    0.533133     0.007504
AU2525   AU        0.644926    0.426377    0.573946     0.007504
AU2526   AU        0.679658    0.388069    0.572850     0.007504
AU2527   AU        0.680639    0.426625    0.537314     0.007504
PD2528   PD        0.716991    0.385155    0.537128     0.005394
AU2529   AU        0.715864    0.424340    0.575239     0.007504
AU2530   AU        0.747696    0.385410    0.576112     0.007504
AU2531   AU        0.751924    0.425543    0.538815     0.007504
PD2532   PD        0.787238    0.384898    0.534376     0.005394
PD2533   PD        0.786122    0.425157    0.574904     0.005394
PD2534   PD        0.822048    0.385242    0.573189     0.005394
PD2535   PD        0.819890    0.422352    0.534704     0.005394
PD2536   PD        0.002284    0.460138    0.540224     0.005394
PD2537   PD        0.037088    0.460956    0.577208     0.005394
PD2538   PD        0.037365    0.498146    0.539340     0.005394
PD2539   PD        0.071442    0.458307    0.539283     0.005394
PD2540   PD        0.070357    0.499225    0.579710     0.005394
PD2541   PD        0.104405    0.459722    0.577543     0.005394
AU2542   AU        0.103817    0.497710    0.540519     0.007504
AU2543   AU        0.141538    0.458316    0.536414     0.007504
AU2544   AU        0.142260    0.494742    0.577326     0.007504
AU2545   AU        0.177946    0.459987    0.576987     0.007504
AU2546   AU        0.178977    0.497293    0.536943     0.007504
AU2547   AU        0.214266    0.461658    0.540278     0.007504
AU2548   AU        0.214019    0.500415    0.578854     0.007504
AU2549   AU        0.250296    0.457880    0.575093     0.007504
AU2550   AU        0.249917    0.498055    0.536014     0.007504
AU2551   AU        0.285580    0.458359    0.535326     0.007504
AU2552   AU        0.284673    0.499709    0.574517     0.007504
AU2553   AU        0.321598    0.459050    0.575171     0.007504
AU2554   AU        0.320165    0.496902    0.534245     0.007504
AU2555   AU        0.358530    0.460619    0.538479     0.007504
AU2556   AU        0.355131    0.499869    0.573391     0.007504
AU2557   AU        0.393978    0.464817    0.576643     0.007504
AU2558   AU        0.394089    0.500981    0.535763     0.007504
AU2559   AU        0.430460    0.461644    0.535178     0.007504
AU2560   AU        0.429450    0.501115    0.574592     0.007504
AU2561   AU        0.466058    0.463629    0.575407     0.007504
AU2562   AU        0.464169    0.501610    0.536125     0.007504
AU2563   AU        0.499737    0.460855    0.531335     0.007504
AU2564   AU        0.499196    0.500207    0.575960     0.007504
AU2565   AU        0.534532    0.464191    0.572035     0.007504
AU2566   AU        0.533957    0.502596    0.536012     0.007504
AU2567   AU        0.573394    0.461423    0.536074     0.007504
AU2568   AU        0.572771    0.503322    0.571905     0.007504
AU2569   AU        0.608815    0.465111    0.573683     0.007504
AU2570   AU        0.611192    0.501061    0.533474     0.007504
AU2571   AU        0.646558    0.463238    0.536827     0.007504
AU2572   AU        0.648303    0.503502    0.570863     0.007504
AU2573   AU        0.681058    0.464101    0.576758     0.007504
AU2574   AU        0.683538    0.500556    0.536130     0.007504
AU2575   AU        0.716314    0.461534    0.536687     0.007504
PD2576   PD        0.718219    0.501762    0.576006     0.005394
AU2577   AU        0.750640    0.463641    0.576407     0.007504
PD2578   PD        0.750367    0.500620    0.532037     0.005394
AU2579   AU        0.786761    0.462936    0.534277     0.007504
PD2580   PD        0.784210    0.501363    0.571708     0.005394
PD2581   PD        0.818953    0.464387    0.572525     0.005394
PD2582   PD        0.824055    0.499076    0.534873     0.005394
PD2583   PD        0.855678    0.459025    0.536509     0.005394
PD2584   PD        0.035707    0.537716    0.579143     0.005394
PD2585   PD        0.039176    0.577161    0.536198     0.005394
PD2586   PD        0.070326    0.538047    0.538876     0.005394
PD2587   PD        0.069850    0.572616    0.579330     0.005394
AU2588   AU        0.105772    0.537455    0.579028     0.007504
AU2589   AU        0.106351    0.575222    0.543127     0.007504
AU2590   AU        0.141637    0.534270    0.541025     0.007504
PD2591   PD        0.143841    0.575838    0.579321     0.005394
AU2592   AU        0.177436    0.536899    0.577163     0.007504
AU2593   AU        0.175813    0.573696    0.537552     0.007504
AU2594   AU        0.214373    0.536502    0.537520     0.007504
AU2595   AU        0.213801    0.573906    0.575240     0.007504
AU2596   AU        0.250286    0.538247    0.575958     0.007504
AU2597   AU        0.247982    0.575223    0.537651     0.007504
AU2598   AU        0.284234    0.538926    0.537488     0.007504
AU2599   AU        0.286252    0.576809    0.576007     0.007504
AU2600   AU        0.319414    0.538868    0.574618     0.007504
AU2601   AU        0.320079    0.578126    0.536327     0.007504
AU2602   AU        0.355233    0.537080    0.535605     0.007504
AU2603   AU        0.354294    0.576120    0.576286     0.007504
AU2604   AU        0.392448    0.539729    0.574166     0.007504
AU2605   AU        0.393244    0.579694    0.537601     0.007504
AU2606   AU        0.431546    0.541376    0.538850     0.007504
AU2607   AU        0.429923    0.577964    0.573262     0.007504
AU2608   AU        0.468258    0.538894    0.575678     0.007504
AU2609   AU        0.466928    0.579742    0.535989     0.007504
AU2610   AU        0.500566    0.538281    0.536596     0.007504
AU2611   AU        0.502569    0.577714    0.571724     0.007504
AU2612   AU        0.539439    0.540369    0.572462     0.007504
AU2613   AU        0.537685    0.580888    0.534265     0.007504
AU2614   AU        0.571461    0.543208    0.532533     0.007504
AU2615   AU        0.570764    0.579375    0.572287     0.007504
AU2616   AU        0.608833    0.540584    0.572440     0.007504
AU2617   AU        0.609491    0.581924    0.536722     0.007504
AU2618   AU        0.643464    0.541421    0.534059     0.007504
PD2619   PD        0.645133    0.579171    0.572663     0.005394
PD2620   PD        0.683867    0.539480    0.573030     0.005394
AU2621   AU        0.680707    0.576000    0.534287     0.007504
PD2622   PD        0.716698    0.539106    0.534981     0.005394
PD2623   PD        0.716653    0.577217    0.573095     0.005394
PD2624   PD        0.750637    0.539876    0.572629     0.005394
AU2625   AU        0.750495    0.578567    0.533696     0.007504
AU2626   AU        0.785199    0.539496    0.534443     0.007504
PD2627   PD        0.784720    0.579879    0.570554     0.005394
PD2628   PD        0.819580    0.540246    0.572783     0.005394
PD2629   PD        0.820373    0.577076    0.532139     0.005394
PD2630   PD        0.037917    0.613708    0.574426     0.005394
PD2631   PD        0.040625    0.651149    0.538541     0.005394
AU2632   AU        0.074674    0.616046    0.537650     0.007504
PD2633   PD        0.072889    0.651618    0.576569     0.005394
PD2634   PD        0.107031    0.613901    0.577575     0.005394
PD2635   PD        0.106574    0.651853    0.538328     0.005394
AU2636   AU        0.142470    0.609993    0.539631     0.007504
PD2637   PD        0.142005    0.651687    0.575588     0.005394
AU2638   AU        0.179223    0.612054    0.579004     0.007504
AU2639   AU        0.177625    0.651745    0.539750     0.007504
AU2640   AU        0.213355    0.613445    0.537373     0.007504
AU2641   AU        0.214058    0.651441    0.573995     0.007504
PD2642   PD        0.246362    0.614243    0.575839     0.005394
AU2643   AU        0.248822    0.656925    0.537748     0.007504
AU2644   AU        0.282607    0.614099    0.536736     0.007504
AU2645   AU        0.282489    0.653407    0.575492     0.007504
AU2646   AU        0.317477    0.615973    0.576468     0.007504
AU2647   AU        0.318306    0.653236    0.536847     0.007504
AU2648   AU        0.355311    0.613551    0.535898     0.007504
AU2649   AU        0.355177    0.651661    0.574496     0.007504
AU2650   AU        0.394092    0.615698    0.577285     0.007504
AU2651   AU        0.393801    0.656521    0.536111     0.007504
AU2652   AU        0.427709    0.617650    0.537115     0.007504
AU2653   AU        0.429504    0.656433    0.576563     0.007504
AU2654   AU        0.462788    0.618696    0.575717     0.007504
AU2655   AU        0.465677    0.657388    0.536340     0.007504
AU2656   AU        0.502827    0.617970    0.533421     0.007504
AU2657   AU        0.500705    0.654301    0.575104     0.007504
AU2658   AU        0.536623    0.617041    0.573153     0.007504
AU2659   AU        0.535965    0.656993    0.536189     0.007504
AU2660   AU        0.571795    0.619641    0.533468     0.007504
AU2661   AU        0.571447    0.655700    0.575085     0.007504
AU2662   AU        0.608202    0.618023    0.571998     0.007504
AU2663   AU        0.607857    0.656182    0.535821     0.007504
AU2664   AU        0.646779    0.616187    0.535522     0.007504
AU2665   AU        0.645378    0.653728    0.575000     0.007504
PD2666   PD        0.681160    0.616779    0.575137     0.005394
AU2667   AU        0.678992    0.656270    0.538143     0.007504
AU2668   AU        0.715425    0.616639    0.536238     0.007504
PD2669   PD        0.717124    0.655040    0.570504     0.005394
PD2670   PD        0.749170    0.614424    0.574275     0.005394
PD2671   PD        0.748777    0.655167    0.533457     0.005394
AU2672   AU        0.784051    0.618949    0.534766     0.007504
PD2673   PD        0.780799    0.655376    0.573907     0.005394
PD2674   PD        0.817607    0.619179    0.575351     0.005394
PD2675   PD        0.820942    0.658909    0.534352     0.005394
PD2676   PD        0.070640    0.692682    0.539379     0.005394
PD2677   PD        0.106908    0.689191    0.576261     0.005394
PD2678   PD        0.106783    0.729220    0.539614     0.005394
AU2679   AU        0.141531    0.690736    0.538948     0.007504
PD2680   PD        0.141732    0.730865    0.577692     0.005394
PD2681   PD        0.176919    0.692267    0.575941     0.005394
PD2682   PD        0.177126    0.731925    0.541805     0.005394
AU2683   AU        0.210725    0.693512    0.538260     0.007504
AU2684   AU        0.213416    0.729782    0.576203     0.007504
AU2685   AU        0.247844    0.694059    0.574140     0.007504
PD2686   PD        0.249328    0.729265    0.536229     0.005394
PD2687   PD        0.286013    0.693075    0.534248     0.005394
PD2688   PD        0.283915    0.731149    0.577153     0.005394
AU2689   AU        0.318729    0.689345    0.574129     0.007504
AU2690   AU        0.318170    0.732225    0.540144     0.007504
AU2691   AU        0.355217    0.692104    0.536218     0.007504
AU2692   AU        0.355789    0.729151    0.576251     0.007504
AU2693   AU        0.392092    0.691619    0.575031     0.007504
AU2694   AU        0.389428    0.734341    0.537167     0.007504
AU2695   AU        0.427023    0.695440    0.537585     0.007504
AU2696   AU        0.425570    0.733403    0.574883     0.007504
AU2697   AU        0.466079    0.694712    0.577196     0.007504
AU2698   AU        0.463252    0.735004    0.538752     0.007504
PD2699   PD        0.502021    0.693106    0.537247     0.005394
AU2700   AU        0.499411    0.732267    0.573183     0.007504
AU2701   AU        0.535008    0.695366    0.574659     0.007504
AU2702   AU        0.533886    0.733475    0.535630     0.007504
AU2703   AU        0.571355    0.697163    0.536391     0.007504
AU2704   AU        0.572335    0.733489    0.574436     0.007504
AU2705   AU        0.611165    0.694971    0.575564     0.007504
AU2706   AU        0.608731    0.731702    0.534665     0.007504
AU2707   AU        0.643163    0.694446    0.539095     0.007504
AU2708   AU        0.645006    0.733750    0.575654     0.007504
PD2709   PD        0.679911    0.695163    0.573806     0.005394
PD2710   PD        0.680541    0.732271    0.536032     0.005394
PD2711   PD        0.712698    0.694402    0.534794     0.005394
PD2712   PD        0.716572    0.732346    0.573923     0.005394
PD2713   PD        0.748785    0.695918    0.573648     0.005394
AU2714   AU        0.750227    0.732826    0.536221     0.007504
PD2715   PD        0.782123    0.692359    0.533165     0.005394
PD2716   PD        0.142568    0.766659    0.539938     0.005394
PD2717   PD        0.176976    0.768984    0.577648     0.005394
PD2718   PD        0.178097    0.803221    0.538853     0.005394
PD2719   PD        0.213485    0.768325    0.538259     0.005394
PD2720   PD        0.214021    0.803426    0.577745     0.005394
PD2721   PD        0.247140    0.765296    0.576312     0.005394
PD2722   PD        0.249269    0.806103    0.540476     0.005394
PD2723   PD        0.282454    0.767655    0.540015     0.005394
PD2724   PD        0.282152    0.806958    0.577987     0.005394
PD2725   PD        0.319010    0.769275    0.578361     0.005394
PD2726   PD        0.316386    0.805791    0.540774     0.005394
AU2727   AU        0.351802    0.770724    0.539648     0.007504
AU2728   AU        0.352385    0.810645    0.576041     0.007504
AU2729   AU        0.389778    0.771260    0.575147     0.007504
AU2730   AU        0.388959    0.808398    0.539086     0.007504
PD2731   PD        0.427025    0.774054    0.536954     0.005394
AU2732   AU        0.426302    0.808671    0.577171     0.007504
AU2733   AU        0.463685    0.770636    0.574392     0.007504
PD2734   PD        0.462713    0.812080    0.537875     0.005394
AU2735   AU        0.497935    0.775672    0.535834     0.007504
PD2736   PD        0.499064    0.810032    0.576322     0.005394
AU2737   AU        0.535716    0.771202    0.573283     0.007504
PD2738   PD        0.534537    0.812761    0.536378     0.005394
PD2739   PD        0.570981    0.774693    0.537601     0.005394
PD2740   PD        0.568733    0.810374    0.578113     0.005394
PD2741   PD        0.606164    0.772753    0.573968     0.005394
PD2742   PD        0.606195    0.809065    0.536348     0.005394
AU2743   AU        0.642003    0.770299    0.536717     0.007504
PD2744   PD        0.641440    0.809558    0.574438     0.005394
PD2745   PD        0.678251    0.773628    0.572090     0.005394
PD2746   PD        0.675658    0.808657    0.532316     0.005394
PD2747   PD        0.714558    0.770625    0.535666     0.005394
PD2748   PD        0.212644    0.842348    0.541832     0.005394
PD2749   PD        0.247171    0.842998    0.579163     0.005394
PD2750   PD        0.245405    0.881410    0.538654     0.005394
AU2751   AU        0.283091    0.846768    0.539945     0.007504
PD2752   PD        0.281199    0.886084    0.577314     0.005394
PD2753   PD        0.315234    0.846251    0.577333     0.005394
PD2754   PD        0.315750    0.887300    0.541087     0.005394
PD2755   PD        0.353368    0.848150    0.537208     0.005394
PD2756   PD        0.353093    0.881246    0.574788     0.005394
PD2757   PD        0.391769    0.845878    0.575316     0.005394
PD2758   PD        0.390686    0.883737    0.536903     0.005394
PD2759   PD        0.426451    0.847630    0.536116     0.005394
PD2760   PD        0.422517    0.883849    0.576631     0.005394
AU2761   AU        0.460953    0.846717    0.578076     0.007504
PD2762   PD        0.461564    0.883526    0.535614     0.005394
PD2763   PD        0.496650    0.846679    0.539286     0.005394
PD2764   PD        0.498470    0.884606    0.577412     0.005394
PD2765   PD        0.534714    0.844216    0.574410     0.005394
PD2766   PD        0.532223    0.882135    0.536346     0.005394
PD2767   PD        0.571317    0.846944    0.536908     0.005394
PD2768   PD        0.569382    0.882775    0.575245     0.005394
PD2769   PD        0.604894    0.843287    0.572667     0.005394
PD2770   PD        0.605358    0.882650    0.536749     0.005394
PD2771   PD        0.639854    0.843353    0.536039     0.005394
PD2772   PD        0.424435    0.922363    0.535206     0.005394
PD2773   PD        0.323089    0.041003    0.611604     0.005394
PD2774   PD        0.361027    0.040172    0.647062     0.005394
PD2775   PD        0.395701    0.043457    0.609874     0.005394
PD2776   PD        0.430678    0.040611    0.651502     0.005394
PD2777   PD        0.468845    0.038764    0.612752     0.005394
PD2778   PD        0.499971    0.040454    0.649364     0.005394
PD2779   PD        0.536135    0.041751    0.614486     0.005394
PD2780   PD        0.180537    0.115964    0.618315     0.005394
PD2781   PD        0.215844    0.115096    0.652528     0.005394
PD2782   PD        0.256976    0.076945    0.653420     0.005394
AU2783   AU        0.251227    0.114945    0.615800     0.007504
PD2784   PD        0.287555    0.078200    0.611069     0.005394
PD2785   PD        0.290453    0.113653    0.654013     0.005394
PD2786   PD        0.326609    0.079968    0.650574     0.005394
PD2787   PD        0.322829    0.116497    0.612326     0.005394
PD2788   PD        0.359580    0.079609    0.612832     0.005394
PD2789   PD        0.358571    0.116536    0.651669     0.005394
PD2790   PD        0.396793    0.078836    0.649694     0.005394
PD2791   PD        0.397217    0.114819    0.612692     0.005394
PD2792   PD        0.431087    0.076879    0.611620     0.005394
PD2793   PD        0.431160    0.116239    0.652883     0.005394
PD2794   PD        0.465279    0.078314    0.649395     0.005394
AU2795   AU        0.465365    0.115689    0.612923     0.007504
PD2796   PD        0.501301    0.077068    0.613123     0.005394
PD2797   PD        0.499459    0.115964    0.651909     0.005394
PD2798   PD        0.536788    0.079835    0.651763     0.005394
PD2799   PD        0.536746    0.118691    0.612298     0.005394
PD2800   PD        0.571115    0.080039    0.612091     0.005394
PD2801   PD        0.569730    0.116605    0.650654     0.005394
PD2802   PD        0.606110    0.081788    0.652485     0.005394
PD2803   PD        0.606454    0.116537    0.614330     0.005394
PD2804   PD        0.644322    0.117534    0.651329     0.005394
PD2805   PD        0.679015    0.116376    0.607793     0.005394
PD2806   PD        0.107674    0.192775    0.617386     0.005394
PD2807   PD        0.143085    0.154503    0.621271     0.005394
PD2808   PD        0.143874    0.191759    0.654190     0.005394
PD2809   PD        0.178463    0.152046    0.654792     0.005394
PD2810   PD        0.178219    0.189039    0.617449     0.005394
PD2811   PD        0.213508    0.153137    0.614854     0.005394
AU2812   AU        0.216613    0.193458    0.655629     0.007504
AU2813   AU        0.250870    0.154315    0.654897     0.007504
AU2814   AU        0.247946    0.189242    0.614664     0.007504
AU2815   AU        0.286652    0.154722    0.615371     0.007504
PD2816   PD        0.287010    0.192874    0.656709     0.005394
PD2817   PD        0.322069    0.154494    0.655318     0.005394
AU2818   AU        0.323387    0.188905    0.617149     0.007504
PD2819   PD        0.360422    0.152749    0.613679     0.005394
AU2820   AU        0.359646    0.189439    0.653925     0.007504
PD2821   PD        0.396894    0.154095    0.651832     0.005394
AU2822   AU        0.392452    0.190953    0.613750     0.007504
AU2823   AU        0.428955    0.153891    0.612310     0.007504
AU2824   AU        0.430821    0.192808    0.653676     0.007504
PD2825   PD        0.464808    0.152139    0.650333     0.005394
AU2826   AU        0.467699    0.190929    0.613639     0.007504
PD2827   PD        0.501828    0.155113    0.610904     0.005394
AU2828   AU        0.503417    0.192790    0.652479     0.007504
PD2829   PD        0.535625    0.151770    0.650968     0.005394
AU2830   AU        0.538977    0.192239    0.610736     0.007504
PD2831   PD        0.571195    0.152974    0.611088     0.005394
AU2832   AU        0.572874    0.188499    0.650678     0.007504
PD2833   PD        0.608594    0.150247    0.651652     0.005394
PD2834   PD        0.606945    0.192698    0.612938     0.005394
AU2835   AU        0.643448    0.154558    0.612810     0.007504
AU2836   AU        0.646866    0.191108    0.649779     0.007504
PD2837   PD        0.682634    0.154165    0.648927     0.005394
PD2838   PD        0.681289    0.191180    0.610275     0.005394
PD2839   PD        0.716537    0.157998    0.610843     0.005394
PD2840   PD        0.716205    0.195595    0.650737     0.005394
PD2841   PD        0.751552    0.196654    0.613354     0.005394
PD2842   PD        0.075762    0.271638    0.658490     0.005394
PD2843   PD        0.111544    0.228866    0.655731     0.005394
PD2844   PD        0.108110    0.267343    0.618586     0.005394
AU2845   AU        0.142049    0.229656    0.614068     0.007504
PD2846   PD        0.144777    0.267402    0.653492     0.005394
PD2847   PD        0.178253    0.228841    0.652773     0.005394
PD2848   PD        0.178744    0.266203    0.613809     0.005394
PD2849   PD        0.213067    0.227535    0.617251     0.005394
AU2850   AU        0.214140    0.266470    0.654591     0.007504
AU2851   AU        0.253006    0.229468    0.653872     0.007504
AU2852   AU        0.252287    0.269279    0.616155     0.007504
AU2853   AU        0.288441    0.226979    0.614220     0.007504
AU2854   AU        0.288288    0.265574    0.656844     0.007504
PD2855   PD        0.320871    0.231488    0.652982     0.005394
AU2856   AU        0.323360    0.269293    0.615905     0.007504
AU2857   AU        0.358697    0.230552    0.613156     0.007504
AU2858   AU        0.359124    0.268775    0.652690     0.007504
AU2859   AU        0.394015    0.229177    0.651741     0.007504
AU2860   AU        0.394705    0.268106    0.614471     0.007504
AU2861   AU        0.431793    0.230817    0.613515     0.007504
AU2862   AU        0.429520    0.270437    0.656653     0.007504
AU2863   AU        0.465277    0.233076    0.653021     0.007504
AU2864   AU        0.465827    0.268629    0.611972     0.007504
AU2865   AU        0.502552    0.232023    0.612010     0.007504
AU2866   AU        0.501585    0.268401    0.651272     0.007504
AU2867   AU        0.539367    0.231469    0.647289     0.007504
AU2868   AU        0.540451    0.271148    0.610614     0.007504
PD2869   PD        0.575580    0.228731    0.614943     0.005394
AU2870   AU        0.575313    0.268678    0.648716     0.007504
PD2871   PD        0.611519    0.229214    0.650520     0.005394
PD2872   PD        0.612778    0.266796    0.613292     0.005394
AU2873   AU        0.645390    0.229198    0.612462     0.007504
AU2874   AU        0.647314    0.266880    0.650850     0.007504
PD2875   PD        0.680305    0.229618    0.649906     0.005394
PD2876   PD        0.681437    0.269814    0.609363     0.005394
AU2877   AU        0.714473    0.230504    0.612020     0.007504
PD2878   PD        0.714042    0.269762    0.651425     0.005394
PD2879   PD        0.749235    0.234185    0.650425     0.005394
PD2880   PD        0.748906    0.270059    0.613487     0.005394
PD2881   PD        0.785243    0.268366    0.651237     0.005394
PD2882   PD        0.040914    0.341094    0.614569     0.005394
PD2883   PD        0.075525    0.302893    0.616286     0.005394
PD2884   PD        0.074877    0.345547    0.655248     0.005394
PD2885   PD        0.109791    0.309313    0.655419     0.005394
AU2886   AU        0.107429    0.342957    0.616569     0.007504
AU2887   AU        0.143214    0.305179    0.616894     0.007504
PD2888   PD        0.145548    0.345743    0.652699     0.005394
AU2889   AU        0.179057    0.307015    0.652677     0.007504
PD2890   PD        0.177672    0.344586    0.612476     0.005394
AU2891   AU        0.213861    0.303740    0.615448     0.007504
AU2892   AU        0.214901    0.343627    0.654679     0.007504
AU2893   AU        0.250103    0.303583    0.655413     0.007504
AU2894   AU        0.250019    0.342941    0.614361     0.007504
AU2895   AU        0.287542    0.305269    0.614632     0.007504
AU2896   AU        0.286935    0.343506    0.652459     0.007504
AU2897   AU        0.322711    0.305946    0.654426     0.007504
AU2898   AU        0.321737    0.342307    0.614598     0.007504
AU2899   AU        0.359180    0.306233    0.613667     0.007504
AU2900   AU        0.358349    0.344890    0.650358     0.007504
AU2901   AU        0.396119    0.309569    0.654512     0.007504
AU2902   AU        0.394971    0.343254    0.614541     0.007504
AU2903   AU        0.429849    0.306278    0.615551     0.007504
AU2904   AU        0.430648    0.348806    0.654617     0.007504
AU2905   AU        0.467696    0.305615    0.651892     0.007504
AU2906   AU        0.466263    0.345406    0.615011     0.007504
AU2907   AU        0.502370    0.307479    0.611909     0.007504
AU2908   AU        0.502168    0.346227    0.651954     0.007504
AU2909   AU        0.536232    0.305584    0.652363     0.007504
AU2910   AU        0.537715    0.347760    0.614227     0.007504
AU2911   AU        0.575126    0.309109    0.611724     0.007504
AU2912   AU        0.573152    0.348073    0.651536     0.007504
AU2913   AU        0.612457    0.307263    0.652286     0.007504
AU2914   AU        0.611621    0.343843    0.614967     0.007504
PD2915   PD        0.646120    0.304821    0.613662     0.005394
PD2916   PD        0.646565    0.346114    0.652044     0.005394
AU2917   AU        0.681584    0.308226    0.650838     0.007504
PD2918   PD        0.680377    0.348093    0.609603     0.005394
AU2919   AU        0.716799    0.308651    0.612368     0.007504
PD2920   PD        0.718442    0.345862    0.654001     0.005394
PD2921   PD        0.751769    0.307087    0.652753     0.005394
PD2922   PD        0.751261    0.347332    0.612567     0.005394
PD2923   PD        0.784738    0.309135    0.612574     0.005394
PD2924   PD        0.786187    0.347994    0.650868     0.005394
PD2925   PD        0.822382    0.346993    0.609671     0.005394
PD2926   PD        0.038620    0.381618    0.652508     0.005394
PD2927   PD        0.036924    0.419527    0.615372     0.005394
AU2928   AU        0.070754    0.381091    0.613291     0.007504
AU2929   AU        0.072632    0.422092    0.654268     0.007504
AU2930   AU        0.107820    0.385443    0.656851     0.007504
PD2931   PD        0.106583    0.418522    0.614499     0.005394
AU2932   AU        0.143355    0.383413    0.616758     0.007504
PD2933   PD        0.144714    0.421074    0.655265     0.005394
PD2934   PD        0.178113    0.382820    0.653599     0.005394
AU2935   AU        0.178865    0.423020    0.613893     0.007504
AU2936   AU        0.214350    0.379392    0.616876     0.007504
AU2937   AU        0.214402    0.421607    0.649445     0.007504
AU2938   AU        0.252540    0.381313    0.655217     0.007504
AU2939   AU        0.249789    0.420221    0.613458     0.007504
AU2940   AU        0.284835    0.381532    0.615154     0.007504
AU2941   AU        0.283735    0.422124    0.651611     0.007504
AU2942   AU        0.319430    0.382435    0.652013     0.007504
AU2943   AU        0.321897    0.425629    0.614134     0.007504
AU2944   AU        0.358542    0.383952    0.614557     0.007504
AU2945   AU        0.358730    0.423273    0.652661     0.007504
AU2946   AU        0.393111    0.385596    0.652213     0.007504
AU2947   AU        0.395699    0.421841    0.613204     0.007504
AU2948   AU        0.430665    0.382871    0.613214     0.007504
AU2949   AU        0.429813    0.427059    0.652987     0.007504
AU2950   AU        0.465593    0.386547    0.651746     0.007504
AU2951   AU        0.465214    0.425247    0.613580     0.007504
AU2952   AU        0.500192    0.385477    0.612650     0.007504
AU2953   AU        0.502734    0.423619    0.654169     0.007504
AU2954   AU        0.536076    0.384688    0.654029     0.007504
AU2955   AU        0.537133    0.419388    0.614970     0.007504
AU2956   AU        0.574214    0.383447    0.614978     0.007504
AU2957   AU        0.572853    0.424478    0.653438     0.007504
AU2958   AU        0.611522    0.383687    0.651239     0.007504
AU2959   AU        0.609587    0.423872    0.611650     0.007504
AU2960   AU        0.647586    0.386689    0.614350     0.007504
AU2961   AU        0.644711    0.425621    0.651073     0.007504
AU2962   AU        0.682512    0.383719    0.653129     0.007504
AU2963   AU        0.682436    0.424364    0.617963     0.007504
AU2964   AU        0.714605    0.386870    0.614372     0.007504
AU2965   AU        0.718683    0.423948    0.652500     0.007504
PD2966   PD        0.751026    0.386154    0.649451     0.005394
PD2967   PD        0.750459    0.425447    0.611794     0.005394
PD2968   PD        0.788813    0.384909    0.611467     0.005394
AU2969   AU        0.787087    0.421932    0.649225     0.007504
PD2970   PD        0.821789    0.383484    0.650603     0.005394
PD2971   PD        0.824284    0.423403    0.609772     0.005394
PD2972   PD        0.038643    0.457958    0.656714     0.005394
AU2973   AU        0.034369    0.496306    0.614609     0.007504
PD2974   PD        0.070427    0.461217    0.615693     0.005394
PD2975   PD        0.071599    0.499649    0.656315     0.005394
AU2976   AU        0.109087    0.460555    0.653445     0.007504
PD2977   PD        0.106963    0.497696    0.615589     0.005394
AU2978   AU        0.141709    0.457432    0.617103     0.007504
PD2979   PD        0.144191    0.495759    0.652812     0.005394
AU2980   AU        0.179108    0.459317    0.653878     0.007504
AU2981   AU        0.177921    0.497836    0.616161     0.007504
AU2982   AU        0.213980    0.461239    0.614238     0.007504
AU2983   AU        0.213530    0.500136    0.652603     0.007504
AU2984   AU        0.250594    0.462507    0.652854     0.007504
AU2985   AU        0.249419    0.498547    0.614145     0.007504
AU2986   AU        0.285644    0.460298    0.611595     0.007504
AU2987   AU        0.284167    0.499033    0.650561     0.007504
AU2988   AU        0.319282    0.459461    0.652609     0.007504
AU2989   AU        0.322082    0.497973    0.613038     0.007504
AU2990   AU        0.357641    0.461024    0.616382     0.007504
AU2991   AU        0.356059    0.502004    0.653238     0.007504
AU2992   AU        0.392679    0.465784    0.654922     0.007504
AU2993   AU        0.394642    0.501342    0.615103     0.007504
AU2994   AU        0.429880    0.462367    0.610904     0.007504
AU2995   AU        0.431637    0.501654    0.653514     0.007504
AU2996   AU        0.465087    0.465068    0.652671     0.007504
AU2997   AU        0.464033    0.502073    0.612622     0.007504
AU2998   AU        0.499746    0.465113    0.614556     0.007504
AU2999   AU        0.502352    0.501524    0.651328     0.007504
AU3000   AU        0.537957    0.461072    0.651678     0.007504
AU3001   AU        0.538167    0.500962    0.611293     0.007504
AU3002   AU        0.572197    0.460661    0.611061     0.007504
AU3003   AU        0.572774    0.499909    0.651974     0.007504
AU3004   AU        0.608776    0.463372    0.651073     0.007504
AU3005   AU        0.607802    0.500337    0.614184     0.007504
AU3006   AU        0.643759    0.466075    0.614051     0.007504
AU3007   AU        0.644897    0.504352    0.651246     0.007504
AU3008   AU        0.680676    0.465122    0.653127     0.007504
PD3009   PD        0.680464    0.503551    0.613745     0.005394
PD3010   PD        0.715041    0.464262    0.614621     0.005394
AU3011   AU        0.717104    0.500975    0.652517     0.007504
PD3012   PD        0.749796    0.461687    0.649535     0.005394
PD3013   PD        0.751662    0.500666    0.612115     0.005394
PD3014   PD        0.785623    0.462445    0.613613     0.005394
PD3015   PD        0.784319    0.500069    0.647543     0.005394
PD3016   PD        0.822511    0.465926    0.646503     0.005394
PD3017   PD        0.816601    0.503212    0.610152     0.005394
PD3018   PD        0.037547    0.534930    0.654487     0.005394
PD3019   PD        0.036493    0.573551    0.616452     0.005394
PD3020   PD        0.072943    0.537769    0.617864     0.005394
AU3021   AU        0.074147    0.574340    0.654196     0.007504
PD3022   PD        0.108632    0.533903    0.653889     0.005394
PD3023   PD        0.107462    0.577634    0.614823     0.005394
AU3024   AU        0.142523    0.534317    0.612315     0.007504
AU3025   AU        0.142020    0.574826    0.652034     0.007504
PD3026   PD        0.178404    0.536972    0.652437     0.005394
PD3027   PD        0.176643    0.574660    0.615131     0.005394
AU3028   AU        0.214179    0.537754    0.613706     0.007504
PD3029   PD        0.213006    0.574261    0.650563     0.005394
AU3030   AU        0.248772    0.539474    0.652212     0.007504
AU3031   AU        0.250323    0.576620    0.614733     0.007504
AU3032   AU        0.285401    0.537156    0.614909     0.007504
AU3033   AU        0.285058    0.577344    0.650752     0.007504
AU3034   AU        0.319806    0.539629    0.652944     0.007504
AU3035   AU        0.321417    0.576793    0.614584     0.007504
AU3036   AU        0.357661    0.537426    0.614562     0.007504
AU3037   AU        0.357175    0.574286    0.653158     0.007504
AU3038   AU        0.393897    0.538554    0.653957     0.007504
AU3039   AU        0.393467    0.577127    0.613525     0.007504
AU3040   AU        0.429469    0.540890    0.612916     0.007504
AU3041   AU        0.429394    0.576003    0.650371     0.007504
AU3042   AU        0.466775    0.539065    0.648501     0.007504
AU3043   AU        0.468066    0.577853    0.611797     0.007504
AU3044   AU        0.503941    0.539631    0.613415     0.007504
AU3045   AU        0.500986    0.578065    0.652269     0.007504
AU3046   AU        0.538527    0.539300    0.653074     0.007504
AU3047   AU        0.536347    0.578420    0.613315     0.007504
AU3048   AU        0.573333    0.541195    0.613067     0.007504
AU3049   AU        0.573411    0.580649    0.651648     0.007504
AU3050   AU        0.608356    0.541472    0.651380     0.007504
AU3051   AU        0.608697    0.579125    0.609032     0.007504
AU3052   AU        0.644868    0.541730    0.613173     0.007504
AU3053   AU        0.645971    0.578706    0.652001     0.007504
AU3054   AU        0.682775    0.540212    0.652668     0.007504
AU3055   AU        0.681853    0.576315    0.611601     0.007504
PD3056   PD        0.718567    0.542157    0.611346     0.005394
AU3057   AU        0.716610    0.577255    0.652404     0.007504
PD3058   PD        0.752680    0.540267    0.649328     0.005394
PD3059   PD        0.750248    0.578728    0.611334     0.005394
PD3060   PD        0.783612    0.541001    0.610861     0.005394
PD3061   PD        0.785183    0.580427    0.649500     0.005394
PD3062   PD        0.816066    0.538941    0.648217     0.005394
PD3063   PD        0.816226    0.577914    0.610347     0.005394
PD3064   PD        0.072530    0.614375    0.614599     0.005394
PD3065   PD        0.074232    0.649428    0.655087     0.005394
PD3066   PD        0.108283    0.612120    0.653926     0.005394
PD3067   PD        0.107118    0.652872    0.615830     0.005394
PD3068   PD        0.140574    0.614765    0.616134     0.005394
PD3069   PD        0.143012    0.650509    0.653317     0.005394
PD3070   PD        0.177783    0.611089    0.651062     0.005394
AU3071   AU        0.176981    0.650448    0.613960     0.007504
AU3072   AU        0.213616    0.613831    0.614253     0.007504
PD3073   PD        0.213623    0.652133    0.651466     0.005394
PD3074   PD        0.249264    0.614711    0.651842     0.005394
AU3075   AU        0.245981    0.654462    0.613672     0.007504
AU3076   AU        0.281984    0.615482    0.616567     0.007504
AU3077   AU        0.286127    0.652206    0.654304     0.007504
AU3078   AU        0.321854    0.615051    0.651261     0.007504
AU3079   AU        0.322103    0.654511    0.613476     0.007504
AU3080   AU        0.357596    0.616950    0.613120     0.007504
AU3081   AU        0.354766    0.654869    0.654162     0.007504
AU3082   AU        0.393515    0.615908    0.650019     0.007504
AU3083   AU        0.392351    0.656466    0.613857     0.007504
AU3084   AU        0.430748    0.613868    0.613735     0.007504
AU3085   AU        0.427821    0.655136    0.652376     0.007504
AU3086   AU        0.462406    0.615886    0.650687     0.007504
AU3087   AU        0.464666    0.655477    0.615100     0.007504
AU3088   AU        0.500413    0.618136    0.614150     0.007504
AU3089   AU        0.500604    0.655553    0.652316     0.007504
AU3090   AU        0.536505    0.618416    0.650443     0.007504
AU3091   AU        0.536624    0.656326    0.612704     0.007504
AU3092   AU        0.569281    0.615488    0.611556     0.007504
AU3093   AU        0.574993    0.652465    0.649036     0.007504
AU3094   AU        0.610588    0.615690    0.650078     0.007504
PD3095   PD        0.609185    0.654819    0.612235     0.005394
AU3096   AU        0.646661    0.614264    0.613270     0.007504
PD3097   PD        0.644906    0.655082    0.649848     0.005394
PD3098   PD        0.681881    0.616879    0.652794     0.005394
AU3099   AU        0.679559    0.655462    0.612732     0.007504
PD3100   PD        0.714734    0.618652    0.612164     0.005394
PD3101   PD        0.713182    0.658788    0.652882     0.005394
PD3102   PD        0.750702    0.616039    0.648698     0.005394
PD3103   PD        0.748359    0.654837    0.612604     0.005394
PD3104   PD        0.783266    0.618390    0.612099     0.005394
PD3105   PD        0.783039    0.655517    0.650105     0.005394
PD3106   PD        0.104663    0.692291    0.655037     0.005394
PD3107   PD        0.105668    0.726251    0.613077     0.005394
AU3108   AU        0.143383    0.689256    0.615300     0.007504
PD3109   PD        0.142128    0.727674    0.651127     0.005394
PD3110   PD        0.178264    0.690917    0.653422     0.005394
AU3111   AU        0.179141    0.729455    0.614057     0.007504
PD3112   PD        0.212282    0.690260    0.612769     0.005394
PD3113   PD        0.213381    0.729168    0.652733     0.005394
AU3114   AU        0.248676    0.690726    0.650655     0.007504
PD3115   PD        0.248777    0.729861    0.613108     0.005394
AU3116   AU        0.283860    0.692152    0.611485     0.007504
AU3117   AU        0.283426    0.726916    0.652384     0.007504
AU3118   AU        0.318498    0.690047    0.656091     0.007504
AU3119   AU        0.320309    0.729689    0.614829     0.007504
AU3120   AU        0.358187    0.696312    0.615404     0.007504
AU3121   AU        0.354347    0.729623    0.655974     0.007504
AU3122   AU        0.392767    0.696453    0.653777     0.007504
AU3123   AU        0.391409    0.734920    0.613106     0.007504
AU3124   AU        0.427553    0.695648    0.612819     0.007504
AU3125   AU        0.428663    0.730933    0.651062     0.007504
AU3126   AU        0.464015    0.693652    0.651585     0.007504
AU3127   AU        0.465426    0.733270    0.617083     0.007504
AU3128   AU        0.500786    0.693092    0.614530     0.007504
AU3129   AU        0.500251    0.733505    0.651233     0.007504
AU3130   AU        0.537067    0.690880    0.651782     0.007504
AU3131   AU        0.535832    0.730352    0.615451     0.007504
AU3132   AU        0.574662    0.693688    0.613510     0.007504
AU3133   AU        0.571702    0.731655    0.650246     0.007504
AU3134   AU        0.609100    0.694081    0.652181     0.007504
AU3135   AU        0.608872    0.733938    0.612009     0.007504
AU3136   AU        0.645081    0.694774    0.613456     0.007504
PD3137   PD        0.643408    0.733449    0.654345     0.005394
AU3138   AU        0.679472    0.697447    0.647816     0.007504
AU3139   AU        0.680711    0.732944    0.611469     0.007504
PD3140   PD        0.715872    0.693349    0.611129     0.005394
PD3141   PD        0.715450    0.734525    0.649645     0.005394
PD3142   PD        0.749827    0.692241    0.651187     0.005394
PD3143   PD        0.750198    0.730955    0.611668     0.005394
PD3144   PD        0.142860    0.765517    0.613952     0.005394
PD3145   PD        0.178282    0.767046    0.650126     0.005394
PD3146   PD        0.178439    0.805908    0.614612     0.005394
PD3147   PD        0.214028    0.767925    0.613565     0.005394
PD3148   PD        0.215096    0.803048    0.650714     0.005394
PD3149   PD        0.250984    0.766975    0.649328     0.005394
PD3150   PD        0.249943    0.802680    0.613432     0.005394
PD3151   PD        0.285883    0.767150    0.613484     0.005394
PD3152   PD        0.284728    0.804607    0.649894     0.005394
PD3153   PD        0.319180    0.768089    0.653801     0.005394
PD3154   PD        0.318370    0.807107    0.613629     0.005394
AU3155   AU        0.354883    0.770648    0.612599     0.007504
PD3156   PD        0.354820    0.807640    0.650121     0.005394
PD3157   PD        0.392751    0.769926    0.651748     0.005394
PD3158   PD        0.391675    0.811220    0.613494     0.005394
AU3159   AU        0.428061    0.770318    0.615680     0.007504
PD3160   PD        0.424269    0.807966    0.652110     0.005394
PD3161   PD        0.462666    0.771647    0.652592     0.005394
PD3162   PD        0.462227    0.807384    0.615078     0.005394
PD3163   PD        0.500126    0.771595    0.615960     0.005394
PD3164   PD        0.498672    0.810001    0.652872     0.005394
PD3165   PD        0.535746    0.770999    0.653831     0.005394
PD3166   PD        0.532735    0.807993    0.614135     0.005394
AU3167   AU        0.569390    0.769227    0.616603     0.007504
PD3168   PD        0.572551    0.808735    0.651887     0.005394
PD3169   PD        0.607650    0.769982    0.653724     0.005394
PD3170   PD        0.607485    0.808339    0.611080     0.005394
PD3171   PD        0.643445    0.771795    0.613572     0.005394
PD3172   PD        0.641868    0.809385    0.650382     0.005394
PD3173   PD        0.678635    0.773703    0.650782     0.005394
PD3174   PD        0.675251    0.809030    0.612114     0.005394
AU3175   AU        0.716059    0.771350    0.610749     0.007504
AU3176   AU        0.246852    0.841665    0.652310     0.007504
PD3177   PD        0.282442    0.843937    0.615081     0.005394
PD3178   PD        0.315784    0.846212    0.650929     0.005394
PD3179   PD        0.317957    0.883900    0.615662     0.005394
PD3180   PD        0.352017    0.846012    0.616179     0.005394
PD3181   PD        0.354375    0.882828    0.652962     0.005394
PD3182   PD        0.390405    0.843891    0.651943     0.005394
PD3183   PD        0.389150    0.881640    0.614575     0.005394
PD3184   PD        0.427536    0.843443    0.616240     0.005394
PD3185   PD        0.425887    0.881544    0.650199     0.005394
PD3186   PD        0.462315    0.845561    0.650082     0.005394
PD3187   PD        0.461503    0.885850    0.613805     0.005394
PD3188   PD        0.497769    0.846638    0.614132     0.005394
PD3189   PD        0.496251    0.881597    0.651440     0.005394
PD3190   PD        0.533109    0.846253    0.652497     0.005394
PD3191   PD        0.533230    0.882609    0.612629     0.005394
PD3192   PD        0.569049    0.847389    0.613975     0.005394
PD3193   PD        0.604733    0.845791    0.648761     0.005394
PD3194   PD        0.251076    0.115661    0.690029     0.005394
PD3195   PD        0.286795    0.117650    0.727268     0.005394
PD3196   PD        0.324788    0.114862    0.689689     0.005394
PD3197   PD        0.360951    0.079185    0.687183     0.005394
PD3198   PD        0.361856    0.117075    0.728382     0.005394
PD3199   PD        0.395353    0.076131    0.724758     0.005394
PD3200   PD        0.395486    0.116881    0.688094     0.005394
PD3201   PD        0.431127    0.078912    0.687264     0.005394
PD3202   PD        0.429089    0.115763    0.729563     0.005394
PD3203   PD        0.465124    0.076910    0.724745     0.005394
PD3204   PD        0.464734    0.117529    0.691018     0.005394
PD3205   PD        0.500620    0.078831    0.687993     0.005394
PD3206   PD        0.500094    0.114379    0.727852     0.005394
PD3207   PD        0.535725    0.116013    0.690533     0.005394
PD3208   PD        0.572601    0.118790    0.724977     0.005394
PD3209   PD        0.609083    0.117558    0.690558     0.005394
PD3210   PD        0.180632    0.191262    0.691751     0.005394
PD3211   PD        0.214292    0.153760    0.691645     0.005394
PD3212   PD        0.215744    0.193715    0.728137     0.005394
PD3213   PD        0.250879    0.153554    0.729489     0.005394
PD3214   PD        0.251180    0.191436    0.691706     0.005394
PD3215   PD        0.286701    0.154231    0.691006     0.005394
PD3216   PD        0.285701    0.191681    0.729919     0.005394
AU3217   AU        0.324340    0.152040    0.730550     0.007504
PD3218   PD        0.320789    0.192255    0.692452     0.005394
AU3219   AU        0.357239    0.152881    0.690238     0.007504
PD3220   PD        0.357278    0.192477    0.728398     0.005394
PD3221   PD        0.392892    0.155525    0.727266     0.005394
PD3222   PD        0.394942    0.192531    0.688777     0.005394
PD3223   PD        0.428644    0.155027    0.692449     0.005394
AU3224   AU        0.430330    0.192178    0.728118     0.007504
AU3225   AU        0.466904    0.155174    0.728685     0.007504
AU3226   AU        0.467498    0.193114    0.690379     0.007504
PD3227   PD        0.501631    0.152532    0.690313     0.005394
PD3228   PD        0.504672    0.195921    0.723599     0.005394
PD3229   PD        0.537249    0.156650    0.725971     0.005394
PD3230   PD        0.538872    0.191156    0.688378     0.005394
PD3231   PD        0.572316    0.153981    0.689601     0.005394
AU3232   AU        0.573591    0.192122    0.727944     0.007504
PD3233   PD        0.609328    0.154763    0.727680     0.005394
AU3234   AU        0.608837    0.189895    0.687081     0.007504
PD3235   PD        0.645056    0.156111    0.687865     0.005394
PD3236   PD        0.641089    0.192141    0.727604     0.005394
PD3237   PD        0.680937    0.190825    0.686627     0.005394
PD3238   PD        0.113103    0.266571    0.692430     0.005394
PD3239   PD        0.145120    0.228069    0.693939     0.005394
PD3240   PD        0.144872    0.268573    0.730261     0.005394
PD3241   PD        0.179848    0.228887    0.730497     0.005394
PD3242   PD        0.178401    0.265707    0.690955     0.005394
AU3243   AU        0.214025    0.230204    0.692109     0.007504
PD3244   PD        0.215642    0.265423    0.729661     0.005394
PD3245   PD        0.251071    0.228454    0.727346     0.005394
PD3246   PD        0.252647    0.269193    0.693845     0.005394
PD3247   PD        0.286387    0.228928    0.693402     0.005394
AU3248   AU        0.285840    0.266364    0.731807     0.007504
AU3249   AU        0.321740    0.228843    0.729899     0.007504
PD3250   PD        0.322808    0.268730    0.697732     0.005394
AU3251   AU        0.358838    0.229949    0.690589     0.007504
AU3252   AU        0.358258    0.268396    0.731981     0.007504
AU3253   AU        0.395851    0.230122    0.731929     0.007504
AU3254   AU        0.395445    0.269191    0.693968     0.007504
PD3255   PD        0.429826    0.231487    0.692260     0.005394
PD3256   PD        0.431604    0.268574    0.730885     0.005394
AU3257   AU        0.467520    0.232394    0.728078     0.007504
AU3258   AU        0.469313    0.268495    0.691018     0.007504
AU3259   AU        0.503917    0.230625    0.688331     0.007504
AU3260   AU        0.503256    0.270583    0.728886     0.007504
PD3261   PD        0.538228    0.230299    0.727758     0.005394
AU3262   AU        0.538085    0.266770    0.690720     0.007504
AU3263   AU        0.572698    0.228909    0.686712     0.007504
PD3264   PD        0.572684    0.268671    0.726294     0.005394
PD3265   PD        0.607234    0.231064    0.726993     0.005394
AU3266   AU        0.607618    0.267476    0.687966     0.007504
AU3267   AU        0.644585    0.230241    0.689848     0.007504
PD3268   PD        0.646558    0.268154    0.726684     0.005394
PD3269   PD        0.681015    0.230869    0.726066     0.005394
PD3270   PD        0.682964    0.269374    0.687380     0.005394
PD3271   PD        0.717038    0.231647    0.688373     0.005394
PD3272   PD        0.713357    0.272645    0.726727     0.005394
PD3273   PD        0.750839    0.271463    0.690749     0.005394
PD3274   PD        0.110781    0.305232    0.730724     0.005394
PD3275   PD        0.108564    0.344533    0.693690     0.005394
PD3276   PD        0.142833    0.307391    0.690436     0.005394
PD3277   PD        0.142732    0.345393    0.729292     0.005394
AU3278   AU        0.179763    0.304752    0.730255     0.007504
PD3279   PD        0.178963    0.344821    0.693181     0.005394
AU3280   AU        0.214644    0.304454    0.694684     0.007504
AU3281   AU        0.214825    0.346519    0.729604     0.007504
AU3282   AU        0.251524    0.306428    0.731516     0.007504
PD3283   PD        0.251402    0.343823    0.692934     0.005394
AU3284   AU        0.287220    0.305342    0.693225     0.007504
AU3285   AU        0.285810    0.344362    0.730343     0.007504
AU3286   AU        0.323232    0.307731    0.733341     0.007504
AU3287   AU        0.321941    0.343939    0.691356     0.007504
PD3288   PD        0.358411    0.309122    0.693391     0.005394
AU3289   AU        0.358621    0.344396    0.729880     0.007504
AU3290   AU        0.395320    0.305870    0.730501     0.007504
AU3291   AU        0.393565    0.346887    0.692160     0.007504
AU3292   AU        0.428765    0.309857    0.692706     0.007504
AU3293   AU        0.429358    0.348074    0.730448     0.007504
AU3294   AU        0.465567    0.306771    0.731230     0.007504
AU3295   AU        0.464961    0.345458    0.692135     0.007504
AU3296   AU        0.501690    0.308590    0.689193     0.007504
AU3297   AU        0.501645    0.349742    0.727638     0.007504
AU3298   AU        0.539630    0.307972    0.727235     0.007504
AU3299   AU        0.536784    0.344836    0.690436     0.007504
AU3300   AU        0.572406    0.306857    0.688043     0.007504
PD3301   PD        0.573429    0.345373    0.727284     0.005394
AU3302   AU        0.609051    0.306234    0.726992     0.007504
AU3303   AU        0.609608    0.345256    0.690203     0.007504
AU3304   AU        0.645990    0.306777    0.691472     0.007504
AU3305   AU        0.645501    0.343582    0.729366     0.007504
PD3306   PD        0.681541    0.308759    0.728210     0.005394
PD3307   PD        0.682750    0.346457    0.691563     0.005394
PD3308   PD        0.715972    0.308459    0.692576     0.005394
PD3309   PD        0.718675    0.345617    0.727666     0.005394
PD3310   PD        0.752216    0.307781    0.725446     0.005394
PD3311   PD        0.752321    0.347816    0.689635     0.005394
PD3312   PD        0.071433    0.385531    0.694787     0.005394
PD3313   PD        0.075282    0.425051    0.728427     0.005394
PD3314   PD        0.105484    0.384721    0.730825     0.005394
PD3315   PD        0.110292    0.421524    0.693472     0.005394
PD3316   PD        0.142695    0.380265    0.693627     0.005394
PD3317   PD        0.144912    0.421028    0.730014     0.005394
PD3318   PD        0.178177    0.383608    0.732172     0.005394
AU3319   AU        0.180732    0.418666    0.692181     0.007504
AU3320   AU        0.213787    0.382809    0.692710     0.007504
AU3321   AU        0.214829    0.423606    0.730851     0.007504
AU3322   AU        0.248843    0.382660    0.732835     0.007504
PD3323   PD        0.247004    0.421596    0.690590     0.005394
AU3324   AU        0.285237    0.384148    0.691334     0.007504
AU3325   AU        0.282919    0.421758    0.729208     0.007504
AU3326   AU        0.322934    0.382161    0.730590     0.007504
AU3327   AU        0.322401    0.420889    0.690681     0.007504
AU3328   AU        0.356583    0.383629    0.691115     0.007504
AU3329   AU        0.357322    0.424800    0.730814     0.007504
AU3330   AU        0.394623    0.385473    0.730384     0.007504
AU3331   AU        0.393188    0.423736    0.692535     0.007504
AU3332   AU        0.428962    0.387313    0.690997     0.007504
AU3333   AU        0.429923    0.422299    0.732371     0.007504
AU3334   AU        0.464368    0.385277    0.729100     0.007504
AU3335   AU        0.467118    0.426059    0.690715     0.007504
AU3336   AU        0.500165    0.386425    0.688626     0.007504
AU3337   AU        0.502360    0.423607    0.729864     0.007504
AU3338   AU        0.535718    0.383825    0.726727     0.007504
AU3339   AU        0.537826    0.425117    0.689995     0.007504
AU3340   AU        0.572890    0.385204    0.690859     0.007504
AU3341   AU        0.574610    0.424526    0.729157     0.007504
AU3342   AU        0.609823    0.386146    0.726270     0.007504
AU3343   AU        0.609417    0.423862    0.689777     0.007504
AU3344   AU        0.646033    0.382277    0.691641     0.007504
AU3345   AU        0.647570    0.423471    0.727339     0.007504
PD3346   PD        0.681362    0.383407    0.727062     0.005394
AU3347   AU        0.680451    0.424382    0.690137     0.007504
AU3348   AU        0.717071    0.384532    0.691146     0.007504
AU3349   AU        0.715855    0.422148    0.730424     0.007504
PD3350   PD        0.752149    0.385999    0.726585     0.005394
PD3351   PD        0.750754    0.426592    0.688831     0.005394
PD3352   PD        0.784897    0.387710    0.687956     0.005394
PD3353   PD        0.787361    0.425521    0.724977     0.005394
PD3354   PD        0.076269    0.459085    0.692320     0.005394
AU3355   AU        0.071200    0.497169    0.724947     0.007504
PD3356   PD        0.111650    0.458956    0.729396     0.005394
PD3357   PD        0.111032    0.497864    0.690888     0.005394
PD3358   PD        0.144665    0.458762    0.693479     0.005394
PD3359   PD        0.144701    0.501516    0.727765     0.005394
AU3360   AU        0.177688    0.458806    0.728467     0.007504
AU3361   AU        0.177692    0.499615    0.691905     0.007504
AU3362   AU        0.214374    0.460127    0.691360     0.007504
PD3363   PD        0.213344    0.501436    0.729975     0.005394
AU3364   AU        0.248728    0.463399    0.730717     0.007504
AU3365   AU        0.248804    0.500914    0.692324     0.007504
AU3366   AU        0.283992    0.459999    0.692982     0.007504
PD3367   PD        0.284612    0.500413    0.732051     0.005394
AU3368   AU        0.318952    0.462074    0.727804     0.007504
AU3369   AU        0.317864    0.499447    0.689905     0.007504
AU3370   AU        0.355481    0.461381    0.691651     0.007504
PD3371   PD        0.355340    0.501072    0.729254     0.005394
AU3372   AU        0.393450    0.461831    0.729169     0.007504
AU3373   AU        0.392146    0.500579    0.693521     0.007504
AU3374   AU        0.429409    0.462767    0.692755     0.007504
AU3375   AU        0.426850    0.501878    0.731364     0.007504
AU3376   AU        0.466740    0.464295    0.729729     0.007504
AU3377   AU        0.464382    0.502433    0.691963     0.007504
AU3378   AU        0.501823    0.462493    0.689758     0.007504
AU3379   AU        0.499717    0.501154    0.730048     0.007504
AU3380   AU        0.537834    0.462823    0.729483     0.007504
AU3381   AU        0.538085    0.499853    0.689716     0.007504
AU3382   AU        0.578009    0.462158    0.693051     0.007504
AU3383   AU        0.572856    0.503557    0.732701     0.007504
AU3384   AU        0.610556    0.464452    0.729082     0.007504
AU3385   AU        0.608949    0.504855    0.692414     0.007504
AU3386   AU        0.644582    0.464049    0.692657     0.007504
PD3387   PD        0.645009    0.503140    0.729565     0.005394
AU3388   AU        0.683634    0.461243    0.728121     0.007504
AU3389   AU        0.678927    0.503845    0.690175     0.007504
AU3390   AU        0.716662    0.461086    0.691982     0.007504
AU3391   AU        0.715421    0.501192    0.725797     0.007504
AU3392   AU        0.753398    0.462761    0.728819     0.007504
PD3393   PD        0.752321    0.501407    0.686714     0.005394
PD3394   PD        0.784501    0.464050    0.686789     0.005394
PD3395   PD        0.785551    0.504598    0.725694     0.005394
PD3396   PD        0.072105    0.537074    0.692179     0.005394
PD3397   PD        0.106524    0.537706    0.729501     0.005394
PD3398   PD        0.109287    0.575375    0.692714     0.005394
PD3399   PD        0.141657    0.536952    0.689246     0.005394
PD3400   PD        0.146631    0.573436    0.727934     0.005394
PD3401   PD        0.177473    0.535357    0.729963     0.005394
AU3402   AU        0.180116    0.575563    0.690986     0.007504
AU3403   AU        0.214578    0.537011    0.693160     0.007504
PD3404   PD        0.213331    0.576338    0.729478     0.005394
AU3405   AU        0.249291    0.538960    0.731191     0.007504
AU3406   AU        0.248472    0.576011    0.689877     0.007504
AU3407   AU        0.283277    0.538154    0.691341     0.007504
AU3408   AU        0.285587    0.575823    0.731605     0.007504
PD3409   PD        0.319792    0.537363    0.728342     0.005394
AU3410   AU        0.320242    0.576064    0.692696     0.007504
AU3411   AU        0.354629    0.538785    0.690700     0.007504
AU3412   AU        0.357758    0.576552    0.730024     0.007504
AU3413   AU        0.391812    0.538495    0.730755     0.007504
AU3414   AU        0.392892    0.577894    0.688213     0.007504
AU3415   AU        0.428159    0.539969    0.690961     0.007504
AU3416   AU        0.426528    0.576315    0.728633     0.007504
AU3417   AU        0.463377    0.540554    0.730473     0.007504
AU3418   AU        0.466699    0.575406    0.688518     0.007504
AU3419   AU        0.501503    0.537780    0.689273     0.007504
AU3420   AU        0.502889    0.575384    0.729183     0.007504
AU3421   AU        0.538672    0.539112    0.729657     0.007504
AU3422   AU        0.536181    0.579561    0.690731     0.007504
AU3423   AU        0.573267    0.539815    0.690365     0.007504
AU3424   AU        0.573552    0.579550    0.727949     0.007504
AU3425   AU        0.608206    0.542390    0.730688     0.007504
AU3426   AU        0.609623    0.580511    0.690085     0.007504
PD3427   PD        0.645558    0.541928    0.693954     0.005394
AU3428   AU        0.646438    0.582669    0.729683     0.007504
AU3429   AU        0.682275    0.543809    0.727724     0.007504
AU3430   AU        0.681439    0.578666    0.689927     0.007504
PD3431   PD        0.717337    0.538899    0.689207     0.005394
PD3432   PD        0.718336    0.578722    0.732863     0.005394
PD3433   PD        0.748855    0.540354    0.725709     0.005394
PD3434   PD        0.750338    0.579640    0.690602     0.005394
PD3435   PD        0.784633    0.541696    0.688823     0.005394
PD3436   PD        0.112997    0.613513    0.728864     0.005394
PD3437   PD        0.109417    0.652308    0.690431     0.005394
PD3438   PD        0.144065    0.612683    0.691939     0.005394
PD3439   PD        0.144850    0.651602    0.728366     0.005394
PD3440   PD        0.179677    0.613289    0.728612     0.005394
PD3441   PD        0.176744    0.650285    0.687715     0.005394
AU3442   AU        0.213240    0.613481    0.688563     0.007504
AU3443   AU        0.213954    0.654120    0.725421     0.007504
AU3444   AU        0.248829    0.613324    0.729181     0.007504
PD3445   PD        0.248990    0.649319    0.688856     0.005394
AU3446   AU        0.285840    0.613872    0.691119     0.007504
AU3447   AU        0.284783    0.651304    0.730894     0.007504
AU3448   AU        0.322874    0.613097    0.731133     0.007504
AU3449   AU        0.320013    0.651977    0.693195     0.007504
AU3450   AU        0.356929    0.615212    0.691569     0.007504
AU3451   AU        0.358338    0.654701    0.729936     0.007504
AU3452   AU        0.392922    0.614573    0.727144     0.007504
AU3453   AU        0.392168    0.654343    0.689930     0.007504
AU3454   AU        0.428026    0.612575    0.689748     0.007504
AU3455   AU        0.428370    0.652922    0.726823     0.007504
AU3456   AU        0.467463    0.612833    0.725851     0.007504
AU3457   AU        0.463082    0.655047    0.689697     0.007504
AU3458   AU        0.500823    0.617559    0.688714     0.007504
AU3459   AU        0.499861    0.655428    0.729741     0.007504
PD3460   PD        0.536561    0.617655    0.728267     0.005394
AU3461   AU        0.536777    0.654318    0.691546     0.007504
AU3462   AU        0.573031    0.619981    0.689232     0.007504
AU3463   AU        0.574035    0.655986    0.729450     0.007504
AU3464   AU        0.609284    0.619292    0.728845     0.007504
PD3465   PD        0.611666    0.655976    0.687987     0.005394
PD3466   PD        0.645788    0.619505    0.688944     0.005394
PD3467   PD        0.644124    0.654093    0.728310     0.005394
AU3468   AU        0.682340    0.618529    0.730548     0.007504
PD3469   PD        0.679151    0.656275    0.689402     0.005394
AU3470   AU        0.716748    0.615763    0.689438     0.007504
PD3471   PD        0.713947    0.658259    0.726134     0.005394
PD3472   PD        0.751396    0.618884    0.730043     0.005394
PD3473   PD        0.749663    0.655638    0.689015     0.005394
PD3474   PD        0.141152    0.692214    0.689556     0.005394
PD3475   PD        0.179127    0.689215    0.723698     0.005394
PD3476   PD        0.178761    0.728761    0.689348     0.005394
AU3477   AU        0.214607    0.690640    0.688522     0.007504
PD3478   PD        0.213263    0.729021    0.728788     0.005394
PD3479   PD        0.249484    0.690722    0.728114     0.005394
PD3480   PD        0.248648    0.729739    0.690815     0.005394
AU3481   AU        0.282908    0.689923    0.691669     0.007504
PD3482   PD        0.280551    0.728211    0.729779     0.005394
PD3483   PD        0.318435    0.690263    0.731253     0.005394
AU3484   AU        0.318833    0.729122    0.696707     0.007504
AU3485   AU        0.357186    0.692574    0.691952     0.007504
PD3486   PD        0.357285    0.732059    0.732260     0.005394
PD3487   PD        0.392298    0.693840    0.729341     0.005394
AU3488   AU        0.391286    0.731987    0.692130     0.007504
AU3489   AU        0.428517    0.694379    0.690895     0.007504
AU3490   AU        0.428275    0.735070    0.727161     0.007504
AU3491   AU        0.463771    0.692222    0.727942     0.007504
AU3492   AU        0.464587    0.732400    0.689175     0.007504
PD3493   PD        0.499890    0.696603    0.691871     0.005394
PD3494   PD        0.500267    0.733668    0.728600     0.005394
AU3495   AU        0.534253    0.694993    0.727321     0.007504
AU3496   AU        0.537298    0.730379    0.691062     0.007504
AU3497   AU        0.572848    0.691801    0.690393     0.007504
PD3498   PD        0.571706    0.731143    0.727230     0.005394
AU3499   AU        0.609730    0.693244    0.725140     0.007504
PD3500   PD        0.607662    0.731493    0.689948     0.005394
PD3501   PD        0.643603    0.694596    0.689598     0.005394
PD3502   PD        0.644636    0.732132    0.725549     0.005394
PD3503   PD        0.679585    0.695220    0.726109     0.005394
PD3504   PD        0.679751    0.737444    0.687666     0.005394
AU3505   AU        0.716595    0.698485    0.691908     0.007504
PD3506   PD        0.214245    0.765099    0.690522     0.005394
PD3507   PD        0.246482    0.768963    0.730011     0.005394
PD3508   PD        0.246998    0.802493    0.689984     0.005394
PD3509   PD        0.283587    0.766119    0.691471     0.005394
PD3510   PD        0.283375    0.805387    0.729342     0.005394
PD3511   PD        0.318259    0.768172    0.730864     0.005394
AU3512   AU        0.317449    0.806976    0.689512     0.007504
PD3513   PD        0.354763    0.767640    0.692938     0.005394
AU3514   AU        0.353595    0.805057    0.730535     0.007504
PD3515   PD        0.390745    0.770508    0.727167     0.005394
PD3516   PD        0.390292    0.806878    0.688317     0.005394
PD3517   PD        0.424940    0.770724    0.689753     0.005394
PD3518   PD        0.427430    0.807652    0.727593     0.005394
PD3519   PD        0.466671    0.770350    0.726396     0.005394
PD3520   PD        0.463177    0.806896    0.688750     0.005394
AU3521   AU        0.500897    0.771772    0.688838     0.007504
PD3522   PD        0.499009    0.809456    0.726190     0.005394
PD3523   PD        0.536163    0.770294    0.727470     0.005394
PD3524   PD        0.534203    0.807606    0.690028     0.005394
PD3525   PD        0.572542    0.770958    0.688353     0.005394
PD3526   PD        0.572017    0.808289    0.721841     0.005394
PD3527   PD        0.607276    0.769019    0.725917     0.005394
PD3528   PD        0.609842    0.806645    0.688807     0.005394
PD3529   PD        0.642624    0.769920    0.690185     0.005394
PD3530   PD        0.356783    0.845520    0.689356     0.005394
PD3531   PD        0.389907    0.842148    0.727097     0.005394
PD3532   PD        0.426086    0.844668    0.688866     0.005394
PD3533   PD        0.460742    0.843693    0.728587     0.005394
PD3534   PD        0.497120    0.845318    0.689152     0.005394
PD3535   PD        0.393999    0.116599    0.766220     0.005394
PD3536   PD        0.464679    0.112684    0.765002     0.005394
PD3537   PD        0.251822    0.190619    0.766923     0.005394
AU3538   AU        0.285726    0.153242    0.767940     0.007504
PD3539   PD        0.286846    0.190044    0.806102     0.005394
PD3540   PD        0.321858    0.193097    0.768290     0.005394
PD3541   PD        0.359742    0.157222    0.766869     0.005394
PD3542   PD        0.357775    0.192587    0.803455     0.005394
PD3543   PD        0.394152    0.155650    0.804036     0.005394
PD3544   PD        0.395147    0.191462    0.765290     0.005394
PD3545   PD        0.428749    0.153613    0.767067     0.005394
PD3546   PD        0.429333    0.193423    0.802109     0.005394
PD3547   PD        0.465810    0.156475    0.799025     0.005394
PD3548   PD        0.465193    0.193737    0.763156     0.005394
PD3549   PD        0.502648    0.156728    0.761782     0.005394
AU3550   AU        0.501602    0.192293    0.802813     0.007504
PD3551   PD        0.539153    0.191083    0.765356     0.005394
PD3552   PD        0.573694    0.153233    0.765178     0.005394
PD3553   PD        0.573498    0.194767    0.802517     0.005394
PD3554   PD        0.608342    0.193572    0.766194     0.005394
PD3555   PD        0.179579    0.265784    0.768128     0.005394
PD3556   PD        0.215284    0.229906    0.767289     0.005394
PD3557   PD        0.215984    0.268907    0.806701     0.005394
PD3558   PD        0.251988    0.228450    0.806184     0.005394
PD3559   PD        0.251042    0.266664    0.767691     0.005394
PD3560   PD        0.284989    0.230226    0.769003     0.005394
PD3561   PD        0.287908    0.267940    0.803899     0.005394
PD3562   PD        0.321728    0.231327    0.803602     0.005394
PD3563   PD        0.321019    0.268363    0.767362     0.005394
PD3564   PD        0.358811    0.229472    0.768778     0.005394
AU3565   AU        0.358867    0.267591    0.806012     0.007504
PD3566   PD        0.396254    0.230608    0.801573     0.005394
PD3567   PD        0.396829    0.270060    0.767562     0.005394
PD3568   PD        0.431171    0.230591    0.767846     0.005394
PD3569   PD        0.432694    0.268025    0.804483     0.005394
PD3570   PD        0.465738    0.230191    0.803642     0.005394
PD3571   PD        0.467868    0.269947    0.767165     0.005394
PD3572   PD        0.502909    0.229223    0.762397     0.005394
PD3573   PD        0.502634    0.267036    0.802835     0.005394
PD3574   PD        0.539316    0.230245    0.802931     0.005394
AU3575   AU        0.537294    0.264917    0.765001     0.007504
PD3576   PD        0.573963    0.231021    0.762672     0.005394
PD3577   PD        0.574285    0.270189    0.800789     0.005394
PD3578   PD        0.607487    0.231334    0.800079     0.005394
PD3579   PD        0.607386    0.267636    0.763927     0.005394
PD3580   PD        0.643379    0.231492    0.763558     0.005394
PD3581   PD        0.642705    0.268957    0.802382     0.005394
PD3582   PD        0.678320    0.267774    0.765811     0.005394
PD3583   PD        0.146246    0.307525    0.770125     0.005394
PD3584   PD        0.182071    0.308186    0.806274     0.005394
PD3585   PD        0.181490    0.347347    0.767962     0.005394
AU3586   AU        0.214410    0.302501    0.766482     0.007504
PD3587   PD        0.215756    0.345581    0.805544     0.005394
PD3588   PD        0.250264    0.307593    0.803084     0.005394
PD3589   PD        0.251135    0.343884    0.768299     0.005394
PD3590   PD        0.288182    0.307682    0.770615     0.005394
PD3591   PD        0.289350    0.345996    0.804854     0.005394
PD3592   PD        0.323506    0.308782    0.804924     0.005394
AU3593   AU        0.326069    0.345162    0.768603     0.007504
AU3594   AU        0.362495    0.307085    0.768372     0.007504
PD3595   PD        0.361168    0.347135    0.809649     0.005394
PD3596   PD        0.394565    0.309514    0.807283     0.005394
AU3597   AU        0.394679    0.346734    0.771855     0.007504
AU3598   AU        0.430564    0.310093    0.770052     0.007504
PD3599   PD        0.432392    0.347826    0.806172     0.005394
AU3600   AU        0.469133    0.309700    0.804369     0.007504
AU3601   AU        0.466940    0.346255    0.768058     0.007504
PD3602   PD        0.504932    0.304768    0.768406     0.005394
PD3603   PD        0.502580    0.344739    0.805591     0.005394
PD3604   PD        0.539694    0.306857    0.801159     0.005394
AU3605   AU        0.538518    0.347049    0.767399     0.007504
PD3606   PD        0.574222    0.307829    0.764553     0.005394
PD3607   PD        0.574404    0.346540    0.803776     0.005394
PD3608   PD        0.608637    0.307799    0.800996     0.005394
PD3609   PD        0.608475    0.346001    0.764445     0.005394
PD3610   PD        0.641868    0.305937    0.764458     0.005394
PD3611   PD        0.644677    0.345674    0.801635     0.005394
PD3612   PD        0.678427    0.308714    0.800978     0.005394
PD3613   PD        0.681246    0.346548    0.763507     0.005394
PD3614   PD        0.714381    0.305619    0.765091     0.005394
PD3615   PD        0.109871    0.421451    0.767599     0.005394
PD3616   PD        0.143473    0.382389    0.768007     0.005394
PD3617   PD        0.142884    0.422342    0.807487     0.005394
PD3618   PD        0.178346    0.384343    0.805182     0.005394
PD3619   PD        0.178028    0.421292    0.767653     0.005394
PD3620   PD        0.215158    0.385986    0.770743     0.005394
PD3621   PD        0.214829    0.423156    0.805664     0.005394
PD3622   PD        0.252267    0.382892    0.803653     0.005394
AU3623   AU        0.249465    0.422553    0.769318     0.007504
PD3624   PD        0.286983    0.381135    0.767302     0.005394
AU3625   AU        0.286835    0.420584    0.804649     0.007504
PD3626   PD        0.323846    0.382071    0.804706     0.005394
AU3627   AU        0.319442    0.421591    0.767053     0.007504
AU3628   AU        0.360664    0.382790    0.767065     0.007504
AU3629   AU        0.357852    0.422677    0.804488     0.007504
AU3630   AU        0.395631    0.385620    0.806372     0.007504
AU3631   AU        0.392361    0.423258    0.767732     0.007504
AU3632   AU        0.432175    0.385973    0.771946     0.007504
AU3633   AU        0.431905    0.421843    0.809412     0.007504
PD3634   PD        0.466919    0.383020    0.808856     0.005394
AU3635   AU        0.466817    0.424146    0.768475     0.007504
AU3636   AU        0.501171    0.382985    0.767456     0.007504
PD3637   PD        0.500975    0.423956    0.804651     0.005394
PD3638   PD        0.537031    0.385235    0.804043     0.005394
PD3639   PD        0.536244    0.420127    0.768409     0.005394
AU3640   AU        0.573711    0.384009    0.765115     0.007504
PD3641   PD        0.573743    0.424285    0.803110     0.005394
AU3642   AU        0.609205    0.384304    0.803129     0.007504
AU3643   AU        0.611034    0.424375    0.765899     0.007504
PD3644   PD        0.643736    0.383917    0.767113     0.005394
PD3645   PD        0.645085    0.421343    0.804532     0.005394
PD3646   PD        0.682220    0.381569    0.801871     0.005394
PD3647   PD        0.680034    0.423082    0.766711     0.005394
PD3648   PD        0.716368    0.384387    0.764528     0.005394
PD3649   PD        0.714364    0.422876    0.801476     0.005394
PD3650   PD        0.752740    0.423264    0.766904     0.005394
PD3651   PD        0.107971    0.499489    0.765241     0.005394
PD3652   PD        0.143560    0.462176    0.767240     0.005394
PD3653   PD        0.142848    0.499038    0.806344     0.005394
PD3654   PD        0.176529    0.461160    0.804972     0.005394
PD3655   PD        0.177605    0.499774    0.767922     0.005394
PD3656   PD        0.213329    0.461287    0.767858     0.005394
PD3657   PD        0.213429    0.498449    0.804633     0.005394
PD3658   PD        0.249949    0.462421    0.807256     0.005394
PD3659   PD        0.249723    0.499526    0.769173     0.005394
AU3660   AU        0.285453    0.461320    0.767616     0.007504
PD3661   PD        0.285495    0.498914    0.806470     0.005394
AU3662   AU        0.321723    0.459865    0.805032     0.007504
PD3663   PD        0.321350    0.498969    0.767317     0.005394
AU3664   AU        0.356156    0.460889    0.768405     0.007504
PD3665   PD        0.357645    0.499893    0.806352     0.005394
AU3666   AU        0.393526    0.458607    0.805357     0.007504
AU3667   AU        0.392133    0.499423    0.770626     0.007504
AU3668   AU        0.429658    0.461356    0.769077     0.007504
PD3669   PD        0.428816    0.501382    0.803246     0.005394
AU3670   AU        0.465370    0.462245    0.807199     0.007504
AU3671   AU        0.465759    0.499908    0.768188     0.007504
AU3672   AU        0.502548    0.462191    0.768446     0.007504
PD3673   PD        0.500733    0.502034    0.802669     0.005394
PD3674   PD        0.537900    0.459671    0.805509     0.005394
AU3675   AU        0.538514    0.499231    0.769495     0.007504
AU3676   AU        0.575268    0.462632    0.767410     0.007504
PD3677   PD        0.574562    0.499419    0.805685     0.005394
AU3678   AU        0.611914    0.459946    0.805591     0.007504
AU3679   AU        0.611060    0.498453    0.766744     0.007504
AU3680   AU        0.647748    0.463250    0.765644     0.007504
PD3681   PD        0.645839    0.501502    0.805053     0.005394
PD3682   PD        0.680845    0.461955    0.802147     0.005394
PD3683   PD        0.680762    0.503193    0.763559     0.005394
PD3684   PD        0.719972    0.462712    0.769962     0.005394
PD3685   PD        0.715765    0.501512    0.803320     0.005394
PD3686   PD        0.749388    0.504057    0.763789     0.005394
PD3687   PD        0.141975    0.536873    0.766674     0.005394
PD3688   PD        0.176838    0.537636    0.806010     0.005394
PD3689   PD        0.178206    0.576514    0.767278     0.005394
PD3690   PD        0.210786    0.537541    0.768284     0.005394
AU3691   AU        0.211187    0.576623    0.808168     0.007504
AU3692   AU        0.246306    0.538923    0.804807     0.007504
PD3693   PD        0.249012    0.575883    0.769640     0.005394
AU3694   AU        0.288189    0.535818    0.770242     0.007504
PD3695   PD        0.284273    0.573255    0.808536     0.005394
PD3696   PD        0.324312    0.538569    0.807722     0.005394
AU3697   AU        0.321021    0.576272    0.771900     0.007504
AU3698   AU        0.356016    0.539183    0.768250     0.007504
PD3699   PD        0.357771    0.575419    0.808342     0.005394
AU3700   AU        0.392767    0.539796    0.806905     0.007504
AU3701   AU        0.392613    0.578481    0.767225     0.007504
AU3702   AU        0.428758    0.539472    0.770640     0.007504
AU3703   AU        0.426889    0.578754    0.808098     0.007504
PD3704   PD        0.463598    0.539982    0.807974     0.005394
AU3705   AU        0.465538    0.575421    0.767152     0.007504
AU3706   AU        0.502531    0.538530    0.765801     0.007504
AU3707   AU        0.499670    0.578998    0.805624     0.007504
PD3708   PD        0.537308    0.539556    0.804877     0.005394
AU3709   AU        0.539280    0.576285    0.767088     0.007504
AU3710   AU        0.576013    0.540773    0.771737     0.007504
PD3711   PD        0.573207    0.576542    0.805724     0.005394
PD3712   PD        0.612635    0.536229    0.803925     0.005394
AU3713   AU        0.609827    0.578788    0.767447     0.007504
PD3714   PD        0.643899    0.538850    0.766352     0.005394
AU3715   AU        0.645854    0.577889    0.804670     0.007504
PD3716   PD        0.680195    0.540504    0.802721     0.005394
PD3717   PD        0.679638    0.578312    0.767036     0.005394
PD3718   PD        0.718254    0.543577    0.772265     0.005394
PD3719   PD        0.144392    0.615092    0.768425     0.005394
PD3720   PD        0.181358    0.618186    0.803971     0.005394
PD3721   PD        0.180754    0.654466    0.764527     0.005394
AU3722   AU        0.214212    0.616831    0.769594     0.007504
PD3723   PD        0.215716    0.656653    0.804926     0.005394
PD3724   PD        0.248909    0.615876    0.806830     0.005394
PD3725   PD        0.250324    0.653292    0.768159     0.005394
AU3726   AU        0.285194    0.614572    0.769552     0.007504
PD3727   PD        0.284055    0.653317    0.805828     0.005394
AU3728   AU        0.318922    0.617024    0.810421     0.007504
AU3729   AU        0.321896    0.652682    0.770071     0.007504
AU3730   AU        0.356485    0.615878    0.770656     0.007504
PD3731   PD        0.358217    0.654995    0.806806     0.005394
AU3732   AU        0.392221    0.615839    0.807650     0.007504
AU3733   AU        0.392423    0.654696    0.766312     0.007504
AU3734   AU        0.427445    0.617034    0.766951     0.007504
PD3735   PD        0.428391    0.654556    0.804931     0.005394
AU3736   AU        0.465314    0.617063    0.803680     0.007504
PD3737   PD        0.462829    0.652954    0.766425     0.005394
AU3738   AU        0.500655    0.616928    0.765698     0.007504
PD3739   PD        0.501628    0.654471    0.804152     0.005394
AU3740   AU        0.533382    0.615525    0.803566     0.007504
PD3741   PD        0.537151    0.654339    0.763813     0.005394
AU3742   AU        0.574019    0.615638    0.767830     0.007504
AU3743   AU        0.574920    0.655130    0.802774     0.007504
PD3744   PD        0.610420    0.614956    0.805989     0.005394
PD3745   PD        0.610163    0.655320    0.765778     0.005394
PD3746   PD        0.643817    0.618359    0.765969     0.005394
PD3747   PD        0.645709    0.653679    0.803411     0.005394
PD3748   PD        0.680748    0.618273    0.801188     0.005394
AU3749   AU        0.682642    0.660175    0.764713     0.007504
PD3750   PD        0.717153    0.620465    0.764486     0.005394
PD3751   PD        0.214875    0.690113    0.765410     0.005394
PD3752   PD        0.248682    0.693311    0.802796     0.005394
PD3753   PD        0.247801    0.729167    0.768531     0.005394
PD3754   PD        0.285592    0.689732    0.768034     0.005394
PD3755   PD        0.285686    0.731072    0.801411     0.005394
PD3756   PD        0.321967    0.694788    0.805445     0.005394
PD3757   PD        0.319337    0.727946    0.764519     0.005394
PD3758   PD        0.356183    0.695054    0.767774     0.005394
PD3759   PD        0.357464    0.731534    0.807458     0.005394
PD3760   PD        0.391491    0.694086    0.801428     0.005394
PD3761   PD        0.392977    0.732063    0.765939     0.005394
PD3762   PD        0.427232    0.691819    0.765754     0.005394
AU3763   AU        0.427905    0.730299    0.803283     0.007504
PD3764   PD        0.463651    0.693118    0.801848     0.005394
AU3765   AU        0.463246    0.732237    0.764065     0.007504
PD3766   PD        0.497568    0.691691    0.764599     0.005394
PD3767   PD        0.502042    0.731608    0.799714     0.005394
PD3768   PD        0.535167    0.693276    0.797796     0.005394
PD3769   PD        0.537360    0.733257    0.763831     0.005394
PD3770   PD        0.574986    0.693333    0.764718     0.005394
PD3771   PD        0.573404    0.730213    0.800209     0.005394
PD3772   PD        0.612447    0.693422    0.801369     0.005394
PD3773   PD        0.608684    0.730606    0.763567     0.005394
PD3774   PD        0.644757    0.693260    0.761424     0.005394
PD3775   PD        0.282372    0.767574    0.764959     0.005394
PD3776   PD        0.355385    0.765092    0.770506     0.005394
PD3777   PD        0.391571    0.768613    0.805511     0.005394
PD3778   PD        0.391931    0.804460    0.766867     0.005394
PD3779   PD        0.427822    0.771118    0.766346     0.005394
PD3780   PD        0.465549    0.769511    0.802377     0.005394
PD3781   PD        0.464854    0.804375    0.762761     0.005394
PD3782   PD        0.501453    0.771068    0.765392     0.005394
PD3783   PD        0.572732    0.769753    0.761591     0.005394
PD3784   PD        0.394085    0.196463    0.839924     0.005394
PD3785   PD        0.463708    0.192418    0.837609     0.005394
PD3786   PD        0.250538    0.271565    0.840655     0.005394
PD3787   PD        0.323480    0.268476    0.841506     0.005394
PD3788   PD        0.360206    0.228911    0.841370     0.005394
PD3789   PD        0.361971    0.269449    0.878600     0.005394
PD3790   PD        0.396084    0.269628    0.839034     0.005394
PD3791   PD        0.430789    0.231411    0.840785     0.005394
PD3792   PD        0.430489    0.267575    0.878876     0.005394
AU3793   AU        0.466693    0.266847    0.842057     0.007504
AU3794   AU        0.501963    0.229299    0.841143     0.007504
AU3795   AU        0.505395    0.270657    0.877505     0.007504
PD3796   PD        0.539399    0.268645    0.837333     0.005394
PD3797   PD        0.606538    0.269586    0.837681     0.005394
PD3798   PD        0.253305    0.344888    0.841785     0.005394
PD3799   PD        0.288148    0.306874    0.839737     0.005394
PD3800   PD        0.286477    0.341851    0.878172     0.005394
PD3801   PD        0.324134    0.306136    0.875778     0.005394
PD3802   PD        0.323656    0.345434    0.842752     0.005394
PD3803   PD        0.358682    0.305710    0.841114     0.005394
PD3804   PD        0.359457    0.345253    0.877674     0.005394
PD3805   PD        0.394715    0.307433    0.877682     0.005394
PD3806   PD        0.396002    0.346567    0.843190     0.005394
PD3807   PD        0.431891    0.305393    0.844295     0.005394
PD3808   PD        0.431444    0.344796    0.877719     0.005394
PD3809   PD        0.470960    0.305059    0.880052     0.005394
PD3810   PD        0.464983    0.346515    0.842573     0.005394
PD3811   PD        0.505171    0.307746    0.837843     0.005394
PD3812   PD        0.501407    0.346216    0.877635     0.005394
PD3813   PD        0.540644    0.310336    0.875204     0.005394
PD3814   PD        0.538251    0.347926    0.840400     0.005394
PD3815   PD        0.572817    0.310707    0.840598     0.005394
PD3816   PD        0.574508    0.350689    0.877699     0.005394
PD3817   PD        0.609940    0.346465    0.840028     0.005394
PD3818   PD        0.182163    0.421938    0.843622     0.005394
PD3819   PD        0.213415    0.384918    0.842768     0.005394
PD3820   PD        0.252031    0.382844    0.879176     0.005394
PD3821   PD        0.252449    0.421615    0.842705     0.005394
PD3822   PD        0.287072    0.383455    0.841168     0.005394
AU3823   AU        0.288636    0.418597    0.880707     0.007504
PD3824   PD        0.322816    0.383377    0.878135     0.005394
PD3825   PD        0.321682    0.422788    0.843382     0.005394
PD3826   PD        0.360564    0.387503    0.843500     0.005394
PD3827   PD        0.357405    0.423015    0.878978     0.005394
AU3828   AU        0.394430    0.385321    0.879086     0.007504
PD3829   PD        0.394804    0.424442    0.844574     0.005394
PD3830   PD        0.430342    0.385181    0.843585     0.005394
PD3831   PD        0.433532    0.423711    0.877556     0.005394
PD3832   PD        0.467249    0.385398    0.875584     0.005394
PD3833   PD        0.468762    0.423313    0.842073     0.005394
PD3834   PD        0.502614    0.386642    0.842321     0.005394
PD3835   PD        0.504105    0.424783    0.877916     0.005394
PD3836   PD        0.538342    0.386818    0.876529     0.005394
PD3837   PD        0.541352    0.422751    0.838782     0.005394
PD3838   PD        0.573957    0.384187    0.839553     0.005394
PD3839   PD        0.577253    0.421967    0.877752     0.005394
PD3840   PD        0.610555    0.384841    0.877429     0.005394
PD3841   PD        0.608657    0.420558    0.840731     0.005394
PD3842   PD        0.647305    0.383039    0.839010     0.005394
PD3843   PD        0.681173    0.421894    0.839071     0.005394
PD3844   PD        0.179701    0.496661    0.845185     0.005394
PD3845   PD        0.215656    0.460525    0.843477     0.005394
PD3846   PD        0.253169    0.457718    0.879283     0.005394
PD3847   PD        0.250679    0.497896    0.843332     0.005394
PD3848   PD        0.287084    0.460870    0.842398     0.005394
PD3849   PD        0.284345    0.496698    0.879218     0.005394
PD3850   PD        0.322358    0.460094    0.880446     0.005394
PD3851   PD        0.321340    0.498332    0.840053     0.005394
PD3852   PD        0.355788    0.459890    0.842318     0.005394
PD3853   PD        0.356293    0.497625    0.877577     0.005394
PD3854   PD        0.393000    0.461223    0.877078     0.005394
PD3855   PD        0.394357    0.498876    0.838989     0.005394
PD3856   PD        0.429358    0.464442    0.841577     0.005394
PD3857   PD        0.429475    0.498532    0.877894     0.005394
PD3858   PD        0.468841    0.461057    0.876626     0.005394
PD3859   PD        0.463588    0.501230    0.841169     0.005394
AU3860   AU        0.501731    0.464085    0.842016     0.007504
PD3861   PD        0.501065    0.502393    0.880625     0.005394
PD3862   PD        0.536225    0.463652    0.881068     0.005394
AU3863   AU        0.536639    0.501002    0.841372     0.007504
PD3864   PD        0.575530    0.460335    0.840710     0.005394
PD3865   PD        0.575017    0.497728    0.877915     0.005394
PD3866   PD        0.610911    0.460021    0.876403     0.005394
PD3867   PD        0.611001    0.498175    0.840259     0.005394
AU3868   AU        0.647527    0.460168    0.841811     0.007504
PD3869   PD        0.682894    0.500576    0.840444     0.005394
PD3870   PD        0.215772    0.536383    0.845509     0.005394
PD3871   PD        0.252707    0.535238    0.881091     0.005394
PD3872   PD        0.249247    0.574527    0.844192     0.005394
PD3873   PD        0.287453    0.536151    0.841374     0.005394
PD3874   PD        0.288232    0.574406    0.877226     0.005394
PD3875   PD        0.321332    0.535333    0.880692     0.005394
PD3876   PD        0.322801    0.576622    0.842102     0.005394
PD3877   PD        0.356496    0.537106    0.842767     0.005394
AU3878   AU        0.357963    0.575361    0.881174     0.007504
PD3879   PD        0.392712    0.536827    0.878385     0.005394
PD3880   PD        0.393342    0.577874    0.844276     0.005394
PD3881   PD        0.427370    0.537183    0.844304     0.005394
PD3882   PD        0.428618    0.577027    0.877723     0.005394
PD3883   PD        0.465355    0.540786    0.879564     0.005394
PD3884   PD        0.465096    0.578835    0.841094     0.005394
AU3885   AU        0.499835    0.538217    0.841695     0.007504
PD3886   PD        0.498548    0.579857    0.878951     0.005394
PD3887   PD        0.538098    0.540759    0.877272     0.005394
PD3888   PD        0.534312    0.577904    0.841581     0.005394
PD3889   PD        0.574970    0.535700    0.842240     0.005394
PD3890   PD        0.572192    0.576930    0.876230     0.005394
PD3891   PD        0.608849    0.536220    0.878455     0.005394
PD3892   PD        0.607851    0.575036    0.841619     0.005394
PD3893   PD        0.645465    0.539336    0.841757     0.005394
PD3894   PD        0.250656    0.653753    0.840405     0.005394
PD3895   PD        0.285036    0.616144    0.846940     0.005394
PD3896   PD        0.321941    0.615149    0.879985     0.005394
PD3897   PD        0.320789    0.657063    0.843186     0.005394
PD3898   PD        0.357447    0.614902    0.843131     0.005394
PD3899   PD        0.357898    0.653135    0.880619     0.005394
PD3900   PD        0.394004    0.616651    0.880878     0.005394
PD3901   PD        0.393663    0.654868    0.843139     0.005394
PD3902   PD        0.430320    0.618889    0.843954     0.005394
PD3903   PD        0.431008    0.658322    0.875645     0.005394
PD3904   PD        0.466682    0.621982    0.876906     0.005394
PD3905   PD        0.465997    0.656468    0.838206     0.005394
PD3906   PD        0.500293    0.619182    0.841176     0.005394
PD3907   PD        0.499314    0.658889    0.875477     0.005394
PD3908   PD        0.536071    0.614696    0.876415     0.005394
PD3909   PD        0.538463    0.656277    0.840685     0.005394
PD3910   PD        0.573086    0.615900    0.839967     0.005394
PD3911   PD        0.608960    0.654910    0.840047     0.005394
PD3912   PD        0.360421    0.691314    0.842124     0.005394
PD3913   PD        0.394750    0.731386    0.840555     0.005394
PD3914   PD        0.428396    0.692773    0.837681     0.005394
PD3915   PD        0.466292    0.730690    0.836401     0.005394
PD3916   PD        0.500580    0.694398    0.838160     0.005394
PD3917   PD        0.397474    0.425643    0.911942     0.005394
PD3918   PD        0.433669    0.384735    0.915521     0.005394
PD3919   PD        0.468725    0.422522    0.914003     0.005394
PD3920   PD        0.360676    0.461647    0.914775     0.005394
PD3921   PD        0.395008    0.496522    0.914890     0.005394
PD3922   PD        0.433075    0.461089    0.915024     0.005394
PD3923   PD        0.465023    0.500942    0.913428     0.005394
PD3924   PD        0.501534    0.462890    0.915636     0.005394
PD3925   PD        0.428003    0.536031    0.914148     0.005394
