data_00001
_audit_creation_method   'DISCUS'

_data_chemical_name_common 'Au.cell: Pearson 85'

_cell_length_a             57.1046
_cell_length_b             61.1835
_cell_length_c             61.1835
_cell_angle_alpha     90.0000
_cell_angle_beta      90.0000
_cell_angle_gamma     90.0000

_symmetry_space_group_name_H-M   'P1              '

loop_
_atom_site_label
_atom_site_symbol
_atom_site_fract_x
_atom_site_fract_y
_atom_site_fract_z
_atom_site_u_iso_or_equiv
PD1   PD        0.375922    0.299257    0.073158     0.005394
PD2   PD        0.444885    0.295786    0.004497     0.005394
PD3   PD        0.523168    0.289514    0.071541     0.005394
PD4   PD        0.308589    0.363620    0.000667     0.005394
PD5   PD        0.341087    0.333999    0.071325     0.005394
PD6   PD        0.374522    0.332067    0.038576     0.005394
PD7   PD        0.410587    0.333789    0.071683     0.005394
PD8   PD        0.447067    0.365036    0.073614     0.005394
PD9   PD        0.482651    0.329551    0.067418     0.005394
PD10   PD        0.515905    0.367248    0.073245     0.005394
PD11   PD        0.545002    0.329141    0.067675     0.005394
PD12   PD        0.591709    0.366700    0.070307     0.005394
PD13   PD        0.270764    0.397184    0.070154     0.005394
AU14   AU        0.304952    0.430121    0.073787     0.007504
PD15   PD        0.342519    0.396381    0.073232     0.005394
PD16   PD        0.376274    0.432096    0.073461     0.005394
PD17   PD        0.409235    0.394728    0.069829     0.005394
AU18   AU        0.414855    0.434634    0.040380     0.007504
PD19   PD        0.447383    0.396917    0.039621     0.005394
PD20   PD        0.446901    0.431793    0.073109     0.005394
PD21   PD        0.481969    0.399038    0.073657     0.005394
AU22   AU        0.479380    0.429846    0.040633     0.007504
AU23   AU        0.517469    0.430802    0.072219     0.007504
PD24   PD        0.556749    0.399041    0.071691     0.005394
PD25   PD        0.591489    0.428969    0.074391     0.005394
PD26   PD        0.609944    0.400608    0.047260     0.005394
PD27   PD        0.269137    0.467540    0.075259     0.005394
PD28   PD        0.304918    0.496320    0.072323     0.005394
PD29   PD        0.341447    0.464354    0.075444     0.005394
PD30   PD        0.377805    0.463596    0.041240     0.005394
AU31   AU        0.376290    0.496374    0.073876     0.007504
AU32   AU        0.411612    0.465534    0.073302     0.007504
PD33   PD        0.415445    0.494789    0.039890     0.005394
PD34   PD        0.448818    0.430331    0.003547     0.005394
PD35   PD        0.448167    0.498919    0.073535     0.005394
PD36   PD        0.483525    0.466197    0.068372     0.005394
PD37   PD        0.483583    0.527076    0.001013     0.005394
AU38   AU        0.554626    0.432432    0.040952     0.007504
AU39   AU        0.521477    0.499285    0.071485     0.007504
PD40   PD        0.554873    0.463243    0.073707     0.005394
PD41   PD        0.595628    0.458744    0.037141     0.005394
AU42   AU        0.627146    0.463971    0.072435     0.007504
PD43   PD        0.266388    0.533241    0.072532     0.005394
AU44   AU        0.303625    0.566856    0.074978     0.007504
PD45   PD        0.340307    0.530611    0.070866     0.005394
PD46   PD        0.379297    0.564639    0.072171     0.005394
PD47   PD        0.410044    0.531681    0.072058     0.005394
PD48   PD        0.449833    0.532378    0.042126     0.005394
PD49   PD        0.447633    0.561451    0.074561     0.005394
AU50   AU        0.486348    0.528556    0.073137     0.007504
PD51   PD        0.520024    0.565766    0.073785     0.005394
PD52   PD        0.553715    0.533752    0.072754     0.005394
AU53   AU        0.591401    0.563954    0.073287     0.007504
PD54   PD        0.662625    0.497326    0.073566     0.005394
PD55   PD        0.337517    0.565316    0.038188     0.005394
PD56   PD        0.378114    0.628033    0.072122     0.005394
AU57   AU        0.414924    0.599622    0.072767     0.007504
PD58   PD        0.449163    0.631218    0.071551     0.005394
PD59   PD        0.482154    0.598304    0.072664     0.005394
PD60   PD        0.517847    0.628863    0.071926     0.005394
AU61   AU        0.556001    0.596925    0.070586     0.007504
AU62   AU        0.303303    0.233015    0.139617     0.007504
PD63   PD        0.374941    0.231487    0.142380     0.005394
PD64   PD        0.444678    0.203541    0.105485     0.005394
PD65   PD        0.370382    0.196379    0.107756     0.005394
PD66   PD        0.445127    0.231777    0.140515     0.005394
PD67   PD        0.480342    0.199156    0.138039     0.005394
PD68   PD        0.481098    0.234618    0.106411     0.005394
PD69   PD        0.516536    0.230236    0.141594     0.005394
PD70   PD        0.586705    0.233238    0.134391     0.005394
PD71   PD        0.229921    0.296921    0.139194     0.005394
AU72   AU        0.270121    0.266177    0.136032     0.007504
PD73   PD        0.271002    0.301865    0.105188     0.005394
PD74   PD        0.305583    0.298884    0.138528     0.005394
PD75   PD        0.339450    0.263585    0.137941     0.005394
PD76   PD        0.337138    0.293668    0.103936     0.005394
PD77   PD        0.377338    0.268649    0.106166     0.005394
PD78   PD        0.376244    0.299764    0.140436     0.005394
AU79   AU        0.410544    0.263066    0.140709     0.007504
PD80   PD        0.408079    0.297069    0.105142     0.005394
AU81   AU        0.446538    0.265582    0.109044     0.007504
AU82   AU        0.443969    0.299543    0.140319     0.007504
PD83   PD        0.479660    0.266945    0.142208     0.005394
AU84   AU        0.480067    0.299497    0.108144     0.007504
PD85   PD        0.516531    0.264894    0.109161     0.005394
AU86   AU        0.514902    0.299004    0.138296     0.007504
PD87   PD        0.552534    0.261419    0.140423     0.005394
PD88   PD        0.554151    0.295687    0.105640     0.005394
PD89   PD        0.588110    0.296694    0.142463     0.005394
PD90   PD        0.625656    0.264748    0.139812     0.005394
PD91   PD        0.623137    0.296236    0.100992     0.005394
PD92   PD        0.660087    0.297075    0.136627     0.005394
PD93   PD        0.192907    0.308494    0.098398     0.005394
AU94   AU        0.235827    0.366590    0.136284     0.007504
AU95   AU        0.269414    0.331982    0.139661     0.007504
AU96   AU        0.271649    0.365704    0.105806     0.007504
AU97   AU        0.305084    0.331293    0.105820     0.007504
AU98   AU        0.304988    0.362290    0.138141     0.007504
PD99   PD        0.342005    0.329629    0.137363     0.005394
AU100   AU        0.340149    0.363651    0.105465     0.007504
PD101   PD        0.375121    0.332562    0.104976     0.005394
PD102   PD        0.375559    0.363844    0.140429     0.005394
PD103   PD        0.408506    0.331677    0.140548     0.005394
PD104   PD        0.407376    0.363355    0.107305     0.005394
PD105   PD        0.442837    0.333335    0.105566     0.005394
AU106   AU        0.446591    0.363493    0.138482     0.007504
PD107   PD        0.483982    0.335595    0.139232     0.005394
AU108   AU        0.482718    0.362746    0.104319     0.007504
PD109   PD        0.518320    0.332289    0.103513     0.005394
PD110   PD        0.522558    0.363936    0.136565     0.005394
PD111   PD        0.556318    0.331669    0.139161     0.005394
PD112   PD        0.557408    0.365615    0.102003     0.005394
PD113   PD        0.587597    0.329897    0.100050     0.005394
PD114   PD        0.588451    0.367599    0.136323     0.005394
PD115   PD        0.624123    0.331854    0.141640     0.005394
AU116   AU        0.625813    0.363430    0.108319     0.007504
AU117   AU        0.662524    0.365221    0.141649     0.007504
AU118   AU        0.697689    0.329350    0.141393     0.007504
PD119   PD        0.162831    0.432556    0.136418     0.005394
PD120   PD        0.198377    0.396802    0.138965     0.005394
PD121   PD        0.197314    0.432016    0.106276     0.005394
PD122   PD        0.232867    0.401347    0.103225     0.005394
AU123   AU        0.235141    0.432178    0.136722     0.007504
AU124   AU        0.270245    0.398779    0.138547     0.007504
AU125   AU        0.269084    0.430680    0.102786     0.007504
AU126   AU        0.306245    0.398401    0.107874     0.007504
PD127   PD        0.304745    0.431933    0.139661     0.005394
PD128   PD        0.338225    0.396734    0.139097     0.005394
PD129   PD        0.340504    0.429451    0.106086     0.005394
PD130   PD        0.375035    0.397506    0.105289     0.005394
PD131   PD        0.373958    0.430275    0.138554     0.005394
AU132   AU        0.409701    0.396554    0.140785     0.007504
PD133   PD        0.409083    0.430035    0.108985     0.005394
AU134   AU        0.446729    0.396831    0.105770     0.007504
PD135   PD        0.451841    0.431171    0.138122     0.005394
AU136   AU        0.482138    0.396530    0.138107     0.007504
PD137   PD        0.482739    0.432722    0.103418     0.005394
PD138   PD        0.520014    0.395760    0.104353     0.005394
PD139   PD        0.517339    0.432058    0.138823     0.005394
PD140   PD        0.550782    0.399008    0.137994     0.005394
PD141   PD        0.553736    0.430391    0.104319     0.005394
AU142   AU        0.592253    0.397800    0.106426     0.007504
PD143   PD        0.588201    0.431635    0.136785     0.005394
PD144   PD        0.626851    0.398532    0.139618     0.005394
PD145   PD        0.623921    0.430356    0.108864     0.005394
PD146   PD        0.659991    0.396953    0.107854     0.005394
AU147   AU        0.660862    0.431065    0.140484     0.007504
PD148   PD        0.696196    0.399319    0.138653     0.005394
PD149   PD        0.731812    0.444301    0.073582     0.005394
PD150   PD        0.730490    0.433441    0.141568     0.005394
AU151   AU        0.161514    0.499803    0.136468     0.007504
AU152   AU        0.197232    0.465811    0.136871     0.007504
PD153   PD        0.202466    0.528441    0.069778     0.005394
PD154   PD        0.234379    0.464584    0.106884     0.005394
AU155   AU        0.233862    0.496172    0.138378     0.007504
PD156   PD        0.269727    0.462504    0.137954     0.005394
PD157   PD        0.270471    0.493524    0.103267     0.005394
AU158   AU        0.304723    0.463160    0.107529     0.007504
AU159   AU        0.304697    0.497768    0.137068     0.007504
AU160   AU        0.337998    0.462434    0.138006     0.007504
AU161   AU        0.338433    0.495500    0.104284     0.007504
PD162   PD        0.374844    0.464077    0.109322     0.005394
PD163   PD        0.373936    0.497780    0.137439     0.005394
PD164   PD        0.412998    0.463262    0.141285     0.005394
PD165   PD        0.413166    0.497433    0.105806     0.005394
PD166   PD        0.445841    0.461717    0.107544     0.005394
PD167   PD        0.449459    0.497189    0.135777     0.005394
AU168   AU        0.484046    0.465070    0.137118     0.007504
PD169   PD        0.482779    0.498998    0.105272     0.005394
AU170   AU        0.520114    0.465905    0.104152     0.007504
PD171   PD        0.518431    0.497339    0.135972     0.005394
PD172   PD        0.552812    0.465530    0.138990     0.005394
PD173   PD        0.554675    0.499111    0.103891     0.005394
PD174   PD        0.591294    0.463283    0.105413     0.005394
PD175   PD        0.589970    0.498126    0.138798     0.005394
PD176   PD        0.625569    0.465614    0.137294     0.005394
AU177   AU        0.625582    0.497963    0.105717     0.007504
AU178   AU        0.660548    0.461640    0.105536     0.007504
AU179   AU        0.659938    0.497900    0.137174     0.007504
AU180   AU        0.696834    0.465638    0.137422     0.007504
PD181   PD        0.696663    0.494087    0.103241     0.005394
AU182   AU        0.735413    0.501160    0.135609     0.007504
PD183   PD        0.197613    0.530259    0.136021     0.005394
PD184   PD        0.232150    0.530008    0.107486     0.005394
PD185   PD        0.230567    0.563819    0.138243     0.005394
AU186   AU        0.267744    0.530538    0.137499     0.007504
AU187   AU        0.267071    0.563831    0.106290     0.007504
AU188   AU        0.304510    0.530202    0.104844     0.007504
AU189   AU        0.304746    0.565404    0.135196     0.007504
AU190   AU        0.340263    0.530297    0.137107     0.007504
PD191   PD        0.342999    0.564134    0.106025     0.005394
AU192   AU        0.375215    0.528733    0.104930     0.007504
AU193   AU        0.376510    0.564179    0.138714     0.007504
AU194   AU        0.411314    0.531859    0.137488     0.007504
AU195   AU        0.412101    0.565472    0.105411     0.007504
PD196   PD        0.448945    0.534493    0.104926     0.005394
AU197   AU        0.446784    0.566137    0.137279     0.007504
PD198   PD        0.482666    0.533721    0.139124     0.005394
AU199   AU        0.484961    0.566089    0.105920     0.007504
AU200   AU        0.519301    0.531426    0.106079     0.007504
AU201   AU        0.520572    0.565985    0.138806     0.007504
AU202   AU        0.554660    0.531502    0.136614     0.007504
AU203   AU        0.555320    0.565602    0.105833     0.007504
AU204   AU        0.590201    0.530766    0.106121     0.007504
AU205   AU        0.590663    0.564976    0.136982     0.007504
PD206   PD        0.626472    0.531640    0.138572     0.005394
PD207   PD        0.626273    0.560843    0.102655     0.005394
PD208   PD        0.666259    0.530481    0.108011     0.005394
PD209   PD        0.662046    0.566385    0.133601     0.005394
AU210   AU        0.696463    0.530206    0.133808     0.007504
AU211   AU        0.198053    0.599867    0.138317     0.007504
PD212   PD        0.234353    0.630147    0.135598     0.005394
AU213   AU        0.267119    0.597561    0.138092     0.007504
PD214   PD        0.307456    0.642641    0.009344     0.005394
PD215   PD        0.303350    0.597743    0.106980     0.005394
AU216   AU        0.305245    0.629048    0.137248     0.007504
AU217   AU        0.341848    0.597274    0.139216     0.007504
PD218   PD        0.340880    0.627034    0.103822     0.005394
AU219   AU        0.377054    0.597683    0.106069     0.007504
PD220   PD        0.378061    0.630050    0.138708     0.005394
PD221   PD        0.412679    0.598793    0.137788     0.005394
AU222   AU        0.414516    0.629190    0.107740     0.007504
AU223   AU        0.448403    0.598600    0.104749     0.007504
PD224   PD        0.450461    0.633380    0.136647     0.005394
PD225   PD        0.484898    0.599352    0.136518     0.005394
AU226   AU        0.483662    0.628064    0.104928     0.007504
AU227   AU        0.519964    0.596989    0.105570     0.007504
AU228   AU        0.520759    0.632357    0.137963     0.007504
AU229   AU        0.556180    0.599276    0.137376     0.007504
AU230   AU        0.553218    0.630567    0.103444     0.007504
AU231   AU        0.591140    0.598249    0.103780     0.007504
PD232   PD        0.589564    0.631099    0.139993     0.005394
AU233   AU        0.626970    0.598083    0.137126     0.007504
AU234   AU        0.621737    0.634255    0.102854     0.007504
PD235   PD        0.661760    0.632362    0.138852     0.005394
PD236   PD        0.694313    0.595054    0.136704     0.005394
AU237   AU        0.267473    0.662721    0.139055     0.007504
PD238   PD        0.307162    0.692539    0.137865     0.005394
PD239   PD        0.338954    0.662255    0.138172     0.005394
PD240   PD        0.378383    0.661502    0.106114     0.005394
AU241   AU        0.376970    0.695278    0.138894     0.007504
AU242   AU        0.412833    0.664243    0.137845     0.007504
PD243   PD        0.450114    0.727681    0.104973     0.005394
AU244   AU        0.449644    0.663215    0.104425     0.007504
AU245   AU        0.450625    0.696346    0.136954     0.007504
PD246   PD        0.485654    0.663797    0.137814     0.005394
PD247   PD        0.483181    0.695708    0.105768     0.005394
AU248   AU        0.520057    0.663780    0.103040     0.007504
AU249   AU        0.520051    0.697717    0.136420     0.007504
AU250   AU        0.555597    0.664183    0.137423     0.007504
PD251   PD        0.588621    0.696047    0.137274     0.005394
PD252   PD        0.622329    0.694907    0.101522     0.005394
PD253   PD        0.413385    0.729191    0.136658     0.005394
PD254   PD        0.484436    0.732388    0.137226     0.005394
PD255   PD        0.339377    0.094645    0.173761     0.005394
PD256   PD        0.375945    0.166687    0.206766     0.005394
PD257   PD        0.408818    0.131030    0.205962     0.005394
PD258   PD        0.409988    0.165694    0.174465     0.005394
PD259   PD        0.444459    0.166852    0.207801     0.005394
PD260   PD        0.500427    0.088217    0.195973     0.005394
PD261   PD        0.503879    0.142567    0.166127     0.005394
PD262   PD        0.512959    0.166231    0.207108     0.005394
PD263   PD        0.561900    0.134102    0.194629     0.005394
PD264   PD        0.234373    0.231172    0.203281     0.005394
AU265   AU        0.269245    0.199646    0.204134     0.007504
PD266   PD        0.266719    0.232589    0.170557     0.005394
AU267   AU        0.306106    0.198018    0.174587     0.007504
AU268   AU        0.303755    0.234384    0.205306     0.007504
PD269   PD        0.339742    0.197576    0.206011     0.005394
AU270   AU        0.339210    0.233207    0.172383     0.007504
AU271   AU        0.375160    0.196553    0.171860     0.007504
AU272   AU        0.376045    0.231538    0.204031     0.007504
PD273   PD        0.411228    0.200189    0.204081     0.005394
AU274   AU        0.411262    0.233362    0.173209     0.007504
PD275   PD        0.443743    0.199543    0.171567     0.005394
AU276   AU        0.447977    0.230321    0.206008     0.007504
PD277   PD        0.479844    0.197632    0.204261     0.005394
AU278   AU        0.480845    0.233879    0.171413     0.007504
PD279   PD        0.515592    0.196868    0.168964     0.005394
PD280   PD        0.517587    0.230773    0.204441     0.005394
PD281   PD        0.553030    0.197024    0.205448     0.005394
PD282   PD        0.550199    0.230710    0.170736     0.005394
PD283   PD        0.587776    0.197851    0.170589     0.005394
PD284   PD        0.590708    0.228228    0.203976     0.005394
PD285   PD        0.633725    0.196721    0.203743     0.005394
PD286   PD        0.628035    0.229584    0.174827     0.005394
PD287   PD        0.659738    0.229748    0.205320     0.005394
PD288   PD        0.162087    0.299986    0.206850     0.005394
AU289   AU        0.198875    0.267188    0.204180     0.007504
AU290   AU        0.195514    0.298259    0.171844     0.007504
PD291   PD        0.232614    0.266097    0.172351     0.005394
PD292   PD        0.232708    0.299061    0.205719     0.005394
AU293   AU        0.269015    0.265235    0.203376     0.007504
AU294   AU        0.267644    0.297691    0.170926     0.007504
PD295   PD        0.304203    0.265760    0.172381     0.005394
PD296   PD        0.305425    0.297001    0.206660     0.005394
AU297   AU        0.339436    0.265789    0.206151     0.007504
AU298   AU        0.339498    0.297683    0.174710     0.007504
AU299   AU        0.375407    0.265780    0.172990     0.007504
AU300   AU        0.375636    0.298708    0.204550     0.007504
AU301   AU        0.411472    0.264586    0.206748     0.007504
PD302   PD        0.410275    0.299507    0.173244     0.005394
AU303   AU        0.444524    0.265814    0.173870     0.007504
AU304   AU        0.445792    0.298693    0.204412     0.007504
PD305   PD        0.478175    0.264121    0.205077     0.005394
AU306   AU        0.480230    0.298881    0.171311     0.007504
PD307   PD        0.517185    0.267601    0.171214     0.005394
AU308   AU        0.516946    0.297192    0.204683     0.007504
PD309   PD        0.553008    0.264363    0.202734     0.005394
PD310   PD        0.551200    0.298913    0.170654     0.005394
PD311   PD        0.589158    0.264481    0.172414     0.005394
PD312   PD        0.587462    0.295818    0.205394     0.005394
PD313   PD        0.622932    0.261807    0.204399     0.005394
PD314   PD        0.624222    0.297794    0.175749     0.005394
AU315   AU        0.659371    0.267159    0.170353     0.007504
PD316   PD        0.660012    0.300250    0.206689     0.005394
PD317   PD        0.692553    0.260805    0.201600     0.005394
PD318   PD        0.700278    0.296034    0.175337     0.005394
PD319   PD        0.731671    0.296013    0.208523     0.005394
PD320   PD        0.127051    0.332778    0.203954     0.005394
PD321   PD        0.129132    0.299309    0.168636     0.005394
AU322   AU        0.161295    0.365577    0.203927     0.007504
AU323   AU        0.198652    0.333317    0.205391     0.007504
AU324   AU        0.199613    0.364236    0.170747     0.007504
PD325   PD        0.233442    0.335566    0.172021     0.005394
PD326   PD        0.232181    0.367156    0.206618     0.005394
PD327   PD        0.269339    0.329798    0.204051     0.005394
PD328   PD        0.269188    0.367408    0.171289     0.005394
PD329   PD        0.303636    0.329804    0.169580     0.005394
PD330   PD        0.301908    0.364437    0.201585     0.005394
PD331   PD        0.337754    0.330365    0.206511     0.005394
AU332   AU        0.340258    0.363963    0.171302     0.007504
AU333   AU        0.374432    0.332214    0.172025     0.007504
AU334   AU        0.375148    0.365137    0.205467     0.007504
AU335   AU        0.413262    0.331199    0.206426     0.007504
PD336   PD        0.411193    0.363633    0.172848     0.005394
AU337   AU        0.447705    0.332216    0.172892     0.007504
AU338   AU        0.447162    0.365932    0.204066     0.007504
AU339   AU        0.479709    0.332196    0.204313     0.007504
PD340   PD        0.484182    0.363089    0.167063     0.005394
AU341   AU        0.518503    0.331394    0.171954     0.007504
PD342   PD        0.514613    0.363914    0.203291     0.005394
PD343   PD        0.551929    0.330313    0.204275     0.005394
PD344   PD        0.554379    0.365699    0.175686     0.005394
PD345   PD        0.589861    0.329795    0.175538     0.005394
PD346   PD        0.589938    0.366978    0.204727     0.005394
AU347   AU        0.625171    0.332001    0.206803     0.007504
PD348   PD        0.625028    0.364633    0.173611     0.005394
PD349   PD        0.663336    0.329717    0.171267     0.005394
AU350   AU        0.660616    0.362805    0.204511     0.007504
PD351   PD        0.697533    0.328748    0.205368     0.005394
AU352   AU        0.696214    0.364366    0.174691     0.007504
AU353   AU        0.732357    0.329695    0.176467     0.007504
PD354   PD        0.730414    0.364447    0.206590     0.005394
AU355   AU        0.768931    0.331523    0.207695     0.007504
PD356   PD        0.057472    0.464008    0.199076     0.005394
AU357   AU        0.128542    0.399650    0.203101     0.007504
PD358   PD        0.126407    0.431122    0.172954     0.005394
AU359   AU        0.163017    0.398414    0.167890     0.007504
PD360   PD        0.163464    0.433589    0.203007     0.005394
AU361   AU        0.195550    0.396954    0.202709     0.007504
AU362   AU        0.195904    0.432904    0.168771     0.007504
AU363   AU        0.233899    0.398500    0.169093     0.007504
PD364   PD        0.233063    0.431665    0.202513     0.005394
AU365   AU        0.268819    0.398967    0.205084     0.007504
AU366   AU        0.269145    0.431494    0.171200     0.007504
AU367   AU        0.304342    0.396745    0.171417     0.007504
AU368   AU        0.303599    0.431031    0.203321     0.007504
PD369   PD        0.338251    0.399919    0.204226     0.005394
AU370   AU        0.340055    0.431923    0.171742     0.007504
AU371   AU        0.374725    0.397071    0.171875     0.007504
AU372   AU        0.374017    0.430419    0.203646     0.007504
AU373   AU        0.411258    0.398338    0.204778     0.007504
AU374   AU        0.410665    0.430288    0.170732     0.007504
PD375   PD        0.447877    0.396810    0.172733     0.005394
PD376   PD        0.448200    0.430447    0.203191     0.005394
PD377   PD        0.483336    0.397814    0.202363     0.005394
PD378   PD        0.486498    0.430806    0.170493     0.005394
PD379   PD        0.519936    0.395829    0.171184     0.005394
PD380   PD        0.517355    0.431377    0.204444     0.005394
AU381   AU        0.556036    0.398743    0.205488     0.007504
PD382   PD        0.553880    0.434124    0.171825     0.005394
PD383   PD        0.588893    0.398528    0.168161     0.005394
PD384   PD        0.589570    0.431223    0.203140     0.005394
PD385   PD        0.627515    0.400293    0.203721     0.005394
AU386   AU        0.625351    0.431870    0.171254     0.007504
PD387   PD        0.663090    0.397647    0.173672     0.005394
AU388   AU        0.661015    0.432167    0.205393     0.007504
PD389   PD        0.700087    0.399169    0.204311     0.005394
AU390   AU        0.697064    0.433501    0.173433     0.007504
PD391   PD        0.730036    0.396024    0.171604     0.005394
PD392   PD        0.729286    0.432056    0.204609     0.005394
PD393   PD        0.761541    0.397128    0.207275     0.005394
PD394   PD        0.763968    0.427846    0.172740     0.005394
PD395   PD        0.803651    0.426386    0.196156     0.005394
PD396   PD        0.093713    0.499265    0.202291     0.005394
AU397   AU        0.126248    0.464803    0.202850     0.007504
PD398   PD        0.089008    0.530447    0.168726     0.005394
PD399   PD        0.162596    0.465460    0.168952     0.005394
AU400   AU        0.162039    0.496854    0.203829     0.007504
AU401   AU        0.196493    0.465535    0.202286     0.007504
AU402   AU        0.198615    0.498044    0.172605     0.007504
AU403   AU        0.233055    0.462750    0.170545     0.007504
PD404   PD        0.233554    0.496513    0.202606     0.005394
PD405   PD        0.269499    0.463049    0.203443     0.005394
PD406   PD        0.269422    0.498828    0.169494     0.005394
AU407   AU        0.302836    0.465892    0.172015     0.007504
PD408   PD        0.305844    0.496019    0.205060     0.005394
AU409   AU        0.340068    0.464105    0.203006     0.007504
AU410   AU        0.339545    0.495876    0.169775     0.007504
PD411   PD        0.375164    0.464689    0.171513     0.005394
AU412   AU        0.375928    0.498356    0.202280     0.007504
PD413   PD        0.407464    0.463569    0.204383     0.005394
PD414   PD        0.412856    0.497277    0.168792     0.005394
PD415   PD        0.449591    0.466625    0.170648     0.005394
PD416   PD        0.445900    0.498851    0.202842     0.005394
PD417   PD        0.485134    0.466579    0.204927     0.005394
PD418   PD        0.480483    0.500206    0.170407     0.005394
AU419   AU        0.517325    0.465168    0.173328     0.007504
PD420   PD        0.518833    0.499012    0.204129     0.005394
PD421   PD        0.555358    0.466669    0.206233     0.005394
AU422   AU        0.555829    0.498678    0.171663     0.007504
PD423   PD        0.592818    0.466992    0.169855     0.005394
PD424   PD        0.592021    0.498029    0.203923     0.005394
AU425   AU        0.626520    0.466552    0.201965     0.007504
PD426   PD        0.625981    0.502321    0.170899     0.005394
AU427   AU        0.661692    0.466492    0.169618     0.007504
AU428   AU        0.661802    0.501101    0.203816     0.007504
PD429   PD        0.697122    0.464802    0.205729     0.005394
AU430   AU        0.699922    0.499081    0.170613     0.007504
PD431   PD        0.730420    0.467565    0.169422     0.005394
PD432   PD        0.733591    0.500969    0.204093     0.005394
PD433   PD        0.765901    0.460052    0.206435     0.005394
PD434   PD        0.753162    0.462045    0.114368     0.005394
AU435   AU        0.803481    0.495061    0.207158     0.007504
AU436   AU        0.127966    0.530296    0.203469     0.007504
PD437   PD        0.163197    0.531184    0.172228     0.005394
PD438   PD        0.161562    0.563142    0.203601     0.005394
AU439   AU        0.201788    0.530806    0.205327     0.007504
AU440   AU        0.196475    0.564452    0.170675     0.007504
PD441   PD        0.233318    0.530153    0.167156     0.005394
PD442   PD        0.231828    0.563947    0.202381     0.005394
PD443   PD        0.266546    0.530267    0.202526     0.005394
PD444   PD        0.269528    0.564775    0.169724     0.005394
AU445   AU        0.305269    0.531020    0.168129     0.007504
PD446   PD        0.302383    0.564953    0.202694     0.005394
AU447   AU        0.339113    0.531115    0.203671     0.007504
PD448   PD        0.340657    0.562032    0.170056     0.005394
PD449   PD        0.374677    0.530770    0.170611     0.005394
AU450   AU        0.374687    0.563107    0.203462     0.007504
AU451   AU        0.410654    0.529943    0.202691     0.007504
AU452   AU        0.412140    0.564088    0.170228     0.007504
PD453   PD        0.446959    0.533632    0.168325     0.005394
AU454   AU        0.445618    0.565232    0.204371     0.007504
AU455   AU        0.480991    0.532062    0.202537     0.007504
PD456   PD        0.484110    0.567753    0.170113     0.005394
AU457   AU        0.520450    0.531766    0.169863     0.007504
AU458   AU        0.518330    0.564141    0.202449     0.007504
AU459   AU        0.553962    0.531358    0.203217     0.007504
AU460   AU        0.554423    0.565283    0.169927     0.007504
PD461   PD        0.590133    0.531633    0.168099     0.005394
AU462   AU        0.590401    0.564640    0.202109     0.007504
PD463   PD        0.626527    0.534034    0.202923     0.005394
PD464   PD        0.627227    0.565316    0.169439     0.005394
PD465   PD        0.660836    0.534274    0.167493     0.005394
AU466   AU        0.661930    0.565746    0.202753     0.007504
AU467   AU        0.698251    0.533747    0.204182     0.007504
PD468   PD        0.694018    0.565239    0.169549     0.005394
PD469   PD        0.735462    0.533998    0.171029     0.005394
AU470   AU        0.733196    0.565629    0.202501     0.007504
PD471   PD        0.769828    0.535072    0.204950     0.005394
PD472   PD        0.125629    0.594241    0.203729     0.005394
PD473   PD        0.132814    0.620600    0.162142     0.005394
PD474   PD        0.160036    0.627672    0.200866     0.005394
AU475   AU        0.195994    0.596603    0.205977     0.007504
AU476   AU        0.198048    0.629567    0.172996     0.007504
AU477   AU        0.233510    0.597671    0.172531     0.007504
PD478   PD        0.233232    0.632368    0.202087     0.005394
PD479   PD        0.269229    0.597180    0.203669     0.005394
AU480   AU        0.269363    0.630104    0.170038     0.007504
AU481   AU        0.305095    0.595180    0.169057     0.007504
AU482   AU        0.304471    0.629949    0.202731     0.007504
AU483   AU        0.340668    0.595340    0.201259     0.007504
AU484   AU        0.339591    0.629157    0.170976     0.007504
AU485   AU        0.377367    0.596983    0.169496     0.007504
PD486   PD        0.372864    0.633344    0.202020     0.005394
PD487   PD        0.412295    0.598165    0.202205     0.005394
AU488   AU        0.414482    0.630418    0.170717     0.007504
PD489   PD        0.447151    0.596692    0.171715     0.005394
AU490   AU        0.448517    0.631059    0.203701     0.007504
AU491   AU        0.485448    0.597217    0.204660     0.007504
AU492   AU        0.484572    0.630111    0.169895     0.007504
PD493   PD        0.520247    0.596564    0.171074     0.005394
PD494   PD        0.517694    0.630223    0.203275     0.005394
AU495   AU        0.555340    0.598281    0.203481     0.007504
AU496   AU        0.555009    0.630243    0.170801     0.007504
PD497   PD        0.592761    0.598101    0.170413     0.005394
AU498   AU        0.590673    0.630012    0.202718     0.007504
AU499   AU        0.625423    0.598192    0.204268     0.007504
PD500   PD        0.624601    0.630679    0.170417     0.005394
PD501   PD        0.660084    0.596215    0.168695     0.005394
PD502   PD        0.661241    0.630242    0.202207     0.005394
PD503   PD        0.696735    0.598197    0.204161     0.005394
PD504   PD        0.699355    0.631064    0.172491     0.005394
AU505   AU        0.732351    0.598010    0.168909     0.007504
PD506   PD        0.735444    0.631290    0.203002     0.005394
AU507   AU        0.767210    0.598274    0.205821     0.007504
PD508   PD        0.200182    0.662488    0.203405     0.005394
PD509   PD        0.232315    0.664201    0.168235     0.005394
PD510   PD        0.231135    0.700900    0.205268     0.005394
AU511   AU        0.268246    0.663643    0.200537     0.007504
PD512   PD        0.224922    0.746204    0.185183     0.005394
PD513   PD        0.304299    0.663060    0.170591     0.005394
PD514   PD        0.304831    0.697687    0.204467     0.005394
PD515   PD        0.338956    0.663947    0.202678     0.005394
AU516   AU        0.340722    0.696193    0.172148     0.007504
PD517   PD        0.379423    0.664204    0.172591     0.005394
AU518   AU        0.376387    0.697084    0.202822     0.007504
PD519   PD        0.413325    0.664341    0.200778     0.005394
AU520   AU        0.413510    0.698126    0.169945     0.007504
AU521   AU        0.449209    0.665705    0.169976     0.007504
PD522   PD        0.448969    0.698151    0.202125     0.005394
AU523   AU        0.483487    0.665657    0.204099     0.007504
PD524   PD        0.483944    0.696730    0.169383     0.005394
PD525   PD        0.519403    0.663582    0.169225     0.005394
AU526   AU        0.520149    0.697717    0.203422     0.007504
PD527   PD        0.553977    0.662993    0.201874     0.005394
AU528   AU        0.555099    0.695310    0.170830     0.007504
PD529   PD        0.591340    0.665434    0.169401     0.005394
AU530   AU        0.591818    0.696577    0.203110     0.007504
AU531   AU        0.626969    0.662799    0.205100     0.007504
PD532   PD        0.627326    0.695271    0.171160     0.005394
PD533   PD        0.665069    0.664405    0.170891     0.005394
AU534   AU        0.662244    0.696540    0.205437     0.007504
AU535   AU        0.698908    0.662508    0.204655     0.007504
AU536   AU        0.268055    0.731366    0.204437     0.007504
PD537   PD        0.303801    0.728962    0.171647     0.005394
PD538   PD        0.308403    0.765504    0.201441     0.005394
AU539   AU        0.340345    0.730649    0.202913     0.007504
PD540   PD        0.376573    0.729177    0.169609     0.005394
AU541   AU        0.377441    0.762892    0.203626     0.007504
PD542   PD        0.412130    0.730669    0.201509     0.005394
AU543   AU        0.414083    0.762920    0.168847     0.007504
PD544   PD        0.449055    0.731186    0.170435     0.005394
AU545   AU        0.449434    0.761102    0.203370     0.007504
AU546   AU        0.484240    0.730705    0.200880     0.007504
PD547   PD        0.486020    0.763132    0.170734     0.005394
AU548   AU        0.521018    0.730142    0.171794     0.007504
PD549   PD        0.519022    0.762864    0.204390     0.005394
AU550   AU        0.554335    0.729404    0.202912     0.007504
AU551   AU        0.590206    0.729137    0.170671     0.007504
PD552   PD        0.559720    0.765930    0.172426     0.005394
PD553   PD        0.626854    0.726800    0.204074     0.005394
PD554   PD        0.413244    0.793562    0.201586     0.005394
PD555   PD        0.482090    0.798997    0.203913     0.005394
PD556   PD        0.371214    0.099883    0.267960     0.005394
PD557   PD        0.445642    0.098734    0.274681     0.005394
AU558   AU        0.514940    0.103980    0.273684     0.007504
PD559   PD        0.235545    0.163733    0.270285     0.005394
PD560   PD        0.201538    0.123858    0.214508     0.005394
AU561   AU        0.269730    0.165256    0.237157     0.007504
PD562   PD        0.299982    0.165617    0.270907     0.005394
AU563   AU        0.339410    0.133958    0.272534     0.007504
AU564   AU        0.338833    0.166536    0.236896     0.007504
PD565   PD        0.374798    0.133354    0.240379     0.005394
AU566   AU        0.373862    0.166682    0.270035     0.007504
AU567   AU        0.407805    0.131804    0.271995     0.007504
AU568   AU        0.408747    0.165678    0.238280     0.007504
AU569   AU        0.442986    0.133157    0.240728     0.007504
PD570   PD        0.445293    0.165603    0.271418     0.005394
PD571   PD        0.477795    0.131052    0.273145     0.005394
PD572   PD        0.480677    0.165217    0.240109     0.005394
PD573   PD        0.518166    0.132311    0.241019     0.005394
AU574   AU        0.515033    0.165921    0.272181     0.007504
PD575   PD        0.553147    0.134250    0.272129     0.005394
PD576   PD        0.551147    0.167193    0.239875     0.005394
PD577   PD        0.587680    0.165515    0.274242     0.005394
PD578   PD        0.621380    0.132465    0.269583     0.005394
AU579   AU        0.623789    0.166235    0.239160     0.007504
PD580   PD        0.659576    0.165791    0.271678     0.005394
PD581   PD        0.160132    0.231026    0.270104     0.005394
PD582   PD        0.198691    0.199049    0.272399     0.005394
AU583   AU        0.198884    0.234346    0.235857     0.007504
PD584   PD        0.232411    0.199154    0.239758     0.005394
PD585   PD        0.231639    0.233893    0.270575     0.005394
PD586   PD        0.267093    0.199794    0.268388     0.005394
AU587   AU        0.268772    0.232600    0.236524     0.007504
PD588   PD        0.304713    0.199559    0.236211     0.005394
AU589   AU        0.303071    0.232036    0.270469     0.007504
PD590   PD        0.338320    0.198818    0.267574     0.005394
AU591   AU        0.341177    0.231749    0.235381     0.007504
AU592   AU        0.375233    0.199370    0.236557     0.007504
AU593   AU        0.373832    0.230822    0.270473     0.007504
AU594   AU        0.410866    0.198897    0.271326     0.007504
PD595   PD        0.410784    0.232898    0.239704     0.005394
PD596   PD        0.446186    0.197671    0.238183     0.005394
PD597   PD        0.444798    0.228693    0.269984     0.005394
AU598   AU        0.481095    0.199328    0.272617     0.007504
PD599   PD        0.481372    0.229020    0.238331     0.005394
AU600   AU        0.517858    0.198281    0.239902     0.007504
PD601   PD        0.516692    0.231475    0.268578     0.005394
AU602   AU        0.552838    0.198872    0.271684     0.007504
PD603   PD        0.550517    0.230801    0.237411     0.005394
PD604   PD        0.587591    0.197857    0.239253     0.005394
PD605   PD        0.591096    0.231535    0.271939     0.005394
AU606   AU        0.625208    0.196907    0.272224     0.007504
PD607   PD        0.627486    0.229378    0.239637     0.005394
AU608   AU        0.661966    0.194536    0.240854     0.007504
AU609   AU        0.662144    0.230415    0.271861     0.007504
AU610   AU        0.697435    0.199864    0.271516     0.007504
AU611   AU        0.694608    0.232358    0.238784     0.007504
AU612   AU        0.731860    0.233281    0.270034     0.007504
PD613   PD        0.089216    0.269172    0.240399     0.005394
PD614   PD        0.129871    0.266893    0.268505     0.005394
PD615   PD        0.123902    0.300784    0.239064     0.005394
AU616   AU        0.162630    0.267125    0.236585     0.007504
PD617   PD        0.164029    0.300909    0.273274     0.005394
PD618   PD        0.196428    0.263102    0.269174     0.005394
PD619   PD        0.197294    0.299279    0.238439     0.005394
AU620   AU        0.233877    0.267062    0.235965     0.007504
AU621   AU        0.232117    0.297626    0.271340     0.007504
PD622   PD        0.266470    0.265339    0.269730     0.005394
PD623   PD        0.266486    0.299206    0.236434     0.005394
AU624   AU        0.302835    0.266998    0.237991     0.007504
AU625   AU        0.303840    0.297753    0.269498     0.007504
PD626   PD        0.339008    0.264361    0.269513     0.005394
AU627   AU        0.341224    0.298305    0.239586     0.007504
PD628   PD        0.374356    0.266336    0.235923     0.005394
AU629   AU        0.376378    0.297811    0.270152     0.007504
AU630   AU        0.408868    0.264866    0.271136     0.007504
PD631   PD        0.411423    0.296655    0.239288     0.005394
AU632   AU        0.445294    0.264999    0.238911     0.007504
AU633   AU        0.447273    0.298995    0.270550     0.007504
AU634   AU        0.482880    0.262590    0.267684     0.007504
AU635   AU        0.481950    0.296652    0.236246     0.007504
PD636   PD        0.518398    0.263875    0.235680     0.005394
PD637   PD        0.518115    0.295072    0.270897     0.005394
PD638   PD        0.554653    0.263452    0.271239     0.005394
PD639   PD        0.553889    0.295735    0.238169     0.005394
PD640   PD        0.587299    0.260696    0.236451     0.005394
AU641   AU        0.588510    0.295733    0.269740     0.007504
AU642   AU        0.628129    0.263904    0.270111     0.007504
PD643   PD        0.629063    0.295498    0.239056     0.005394
PD644   PD        0.660345    0.264839    0.237640     0.005394
PD645   PD        0.663320    0.296206    0.271291     0.005394
PD646   PD        0.695475    0.263086    0.271765     0.005394
AU647   AU        0.695561    0.296159    0.237974     0.007504
PD648   PD        0.735240    0.262607    0.239373     0.005394
AU649   AU        0.731001    0.297082    0.272868     0.007504
PD650   PD        0.769916    0.263589    0.274507     0.005394
PD651   PD        0.765970    0.298546    0.240878     0.005394
PD652   PD        0.837121    0.321524    0.273803     0.005394
PD653   PD        0.089177    0.335582    0.238666     0.005394
AU654   AU        0.126054    0.332563    0.273274     0.007504
AU655   AU        0.126818    0.364817    0.238576     0.007504
PD656   PD        0.160893    0.333098    0.239176     0.005394
AU657   AU        0.162175    0.365042    0.272060     0.007504
PD658   PD        0.197924    0.331677    0.272024     0.005394
PD659   PD        0.195230    0.365293    0.240708     0.005394
PD660   PD        0.233413    0.333493    0.236841     0.005394
AU661   AU        0.233883    0.364109    0.269961     0.007504
PD662   PD        0.267313    0.331300    0.271401     0.005394
PD663   PD        0.268398    0.367390    0.236823     0.005394
PD664   PD        0.302589    0.331258    0.238265     0.005394
AU665   AU        0.302764    0.366081    0.270410     0.007504
AU666   AU        0.340808    0.330140    0.270281     0.007504
PD667   PD        0.338762    0.361948    0.240287     0.005394
AU668   AU        0.376301    0.331109    0.238077     0.007504
PD669   PD        0.375208    0.363068    0.272886     0.005394
PD670   PD        0.412642    0.329856    0.269420     0.005394
AU671   AU        0.410465    0.363743    0.235528     0.007504
PD672   PD        0.447894    0.332239    0.238264     0.005394
PD673   PD        0.445496    0.366286    0.268273     0.005394
AU674   AU        0.482680    0.332445    0.270303     0.007504
AU675   AU        0.483035    0.364175    0.237394     0.007504
PD676   PD        0.518172    0.328913    0.238686     0.005394
PD677   PD        0.519343    0.361882    0.270900     0.005394
PD678   PD        0.555606    0.330437    0.271433     0.005394
PD679   PD        0.553243    0.365204    0.238744     0.005394
PD680   PD        0.589964    0.331464    0.237588     0.005394
AU681   AU        0.589834    0.363766    0.272110     0.007504
AU682   AU        0.625777    0.329340    0.269857     0.007504
PD683   PD        0.627841    0.363320    0.238264     0.005394
PD684   PD        0.660397    0.331785    0.238742     0.005394
PD685   PD        0.661600    0.359992    0.271234     0.005394
PD686   PD        0.697928    0.331611    0.272636     0.005394
PD687   PD        0.694807    0.363491    0.238760     0.005394
AU688   AU        0.731824    0.329935    0.238669     0.007504
PD689   PD        0.732052    0.361716    0.272375     0.005394
PD690   PD        0.765145    0.331275    0.272670     0.005394
PD691   PD        0.766416    0.362802    0.242229     0.005394
PD692   PD        0.799647    0.364020    0.267330     0.005394
PD693   PD        0.019436    0.404810    0.239276     0.005394
PD694   PD        0.092886    0.398682    0.241633     0.005394
PD695   PD        0.093110    0.431160    0.273087     0.005394
AU696   AU        0.125929    0.397268    0.272652     0.007504
AU697   AU        0.128854    0.431472    0.238728     0.007504
PD698   PD        0.161165    0.397434    0.238084     0.005394
AU699   AU        0.162712    0.430642    0.273595     0.007504
PD700   PD        0.197670    0.399237    0.269152     0.005394
PD701   PD        0.196920    0.431071    0.235377     0.005394
PD702   PD        0.234536    0.401457    0.236344     0.005394
AU703   AU        0.231234    0.430570    0.269860     0.007504
AU704   AU        0.269662    0.400253    0.270549     0.007504
AU705   AU        0.269744    0.431511    0.236673     0.007504
PD706   PD        0.304891    0.395695    0.237076     0.005394
AU707   AU        0.304915    0.432055    0.270018     0.007504
AU708   AU        0.339810    0.396687    0.268571     0.007504
AU709   AU        0.339993    0.431942    0.235133     0.007504
AU710   AU        0.374709    0.397494    0.236530     0.007504
PD711   PD        0.373553    0.430933    0.270272     0.005394
AU712   AU        0.410382    0.397527    0.269397     0.007504
AU713   AU        0.410368    0.431727    0.237142     0.007504
AU714   AU        0.447726    0.398060    0.235863     0.007504
AU715   AU        0.445935    0.431939    0.269239     0.007504
PD716   PD        0.484805    0.395549    0.271464     0.005394
PD717   PD        0.485300    0.431396    0.237366     0.005394
PD718   PD        0.518663    0.398141    0.237436     0.005394
PD719   PD        0.520544    0.429803    0.270027     0.005394
AU720   AU        0.556506    0.398072    0.271422     0.007504
AU721   AU        0.556156    0.431061    0.238033     0.007504
PD722   PD        0.593271    0.397230    0.238538     0.005394
AU723   AU        0.590318    0.431131    0.270502     0.007504
PD724   PD        0.626546    0.397370    0.271880     0.005394
PD725   PD        0.624998    0.429924    0.240112     0.005394
AU726   AU        0.660983    0.395760    0.236766     0.007504
AU727   AU        0.661812    0.431589    0.271357     0.007504
AU728   AU        0.697326    0.396600    0.272955     0.007504
PD729   PD        0.694531    0.430154    0.238081     0.005394
PD730   PD        0.729943    0.396399    0.238553     0.005394
PD731   PD        0.732214    0.431505    0.273214     0.005394
AU732   AU        0.765736    0.398192    0.273984     0.007504
AU733   AU        0.766135    0.429942    0.238558     0.007504
PD734   PD        0.799769    0.399983    0.240729     0.005394
AU735   AU        0.804289    0.429516    0.273048     0.007504
PD736   PD        0.840673    0.398597    0.268261     0.005394
PD737   PD        0.058255    0.466411    0.273149     0.005394
PD738   PD        0.091459    0.465767    0.238527     0.005394
AU739   AU        0.092587    0.500676    0.271370     0.007504
PD740   PD        0.126936    0.466454    0.270111     0.005394
AU741   AU        0.127427    0.497370    0.237362     0.007504
PD742   PD        0.163081    0.466929    0.237202     0.005394
PD743   PD        0.165727    0.502033    0.270304     0.005394
PD744   PD        0.197201    0.463830    0.268167     0.005394
PD745   PD        0.199888    0.498917    0.234562     0.005394
PD746   PD        0.232700    0.464076    0.234957     0.005394
AU747   AU        0.229915    0.497227    0.270522     0.007504
AU748   AU        0.267254    0.462419    0.268448     0.007504
AU749   AU        0.270141    0.497140    0.238484     0.007504
AU750   AU        0.305441    0.464389    0.238374     0.007504
AU751   AU        0.306378    0.497081    0.270042     0.007504
AU752   AU        0.340178    0.464654    0.270722     0.007504
AU753   AU        0.341172    0.498718    0.237533     0.007504
AU754   AU        0.374702    0.463629    0.235276     0.007504
AU755   AU        0.375535    0.498137    0.269139     0.007504
AU756   AU        0.408205    0.464981    0.268969     0.007504
PD757   PD        0.408333    0.497954    0.235559     0.005394
AU758   AU        0.445124    0.465615    0.237115     0.007504
AU759   AU        0.446471    0.500192    0.268533     0.007504
PD760   PD        0.482883    0.466289    0.268407     0.005394
PD761   PD        0.482486    0.501341    0.237161     0.005394
PD762   PD        0.518231    0.464383    0.237379     0.005394
AU763   AU        0.518638    0.498695    0.270280     0.007504
AU764   AU        0.555885    0.464448    0.270311     0.007504
AU765   AU        0.554994    0.500268    0.237817     0.007504
AU766   AU        0.590677    0.465407    0.235286     0.007504
AU767   AU        0.590816    0.498630    0.269627     0.007504
AU768   AU        0.624948    0.466249    0.267699     0.007504
PD769   PD        0.627498    0.500301    0.235333     0.005394
AU770   AU        0.660114    0.468199    0.234817     0.007504
PD771   PD        0.665851    0.496831    0.269387     0.005394
PD772   PD        0.695447    0.462634    0.271172     0.005394
PD773   PD        0.697501    0.500612    0.238975     0.005394
PD774   PD        0.732639    0.464609    0.239738     0.005394
AU775   AU        0.732778    0.498766    0.269275     0.007504
AU776   AU        0.768572    0.462542    0.269560     0.007504
PD777   PD        0.768995    0.501837    0.237748     0.005394
PD778   PD        0.800097    0.469288    0.236670     0.005394
PD779   PD        0.804317    0.496413    0.271729     0.005394
PD780   PD        0.839732    0.464296    0.271851     0.005394
PD781   PD        0.057975    0.529272    0.270105     0.005394
PD782   PD        0.054222    0.497017    0.236281     0.005394
PD783   PD        0.093801    0.564506    0.267875     0.005394
AU784   AU        0.128023    0.530618    0.270819     0.007504
AU785   AU        0.126958    0.565316    0.236748     0.007504
PD786   PD        0.161468    0.530474    0.237536     0.005394
AU787   AU        0.161063    0.566046    0.269824     0.007504
PD788   PD        0.197198    0.532841    0.269352     0.005394
AU789   AU        0.198613    0.564261    0.238625     0.007504
PD790   PD        0.235214    0.530348    0.238174     0.005394
PD791   PD        0.234200    0.564874    0.270991     0.005394
PD792   PD        0.270472    0.528326    0.272460     0.005394
PD793   PD        0.271496    0.563035    0.235481     0.005394
AU794   AU        0.305849    0.530142    0.235812     0.007504
AU795   AU        0.306977    0.563711    0.269037     0.007504
PD796   PD        0.341770    0.531556    0.269805     0.005394
AU797   AU        0.340052    0.564128    0.235266     0.007504
AU798   AU        0.375534    0.531572    0.235382     0.007504
PD799   PD        0.378572    0.564968    0.269984     0.005394
AU800   AU        0.411014    0.531345    0.267363     0.007504
AU801   AU        0.410862    0.565220    0.237208     0.007504
AU802   AU        0.444495    0.531585    0.234640     0.007504
AU803   AU        0.446298    0.564894    0.268356     0.007504
AU804   AU        0.482698    0.532614    0.269444     0.007504
AU805   AU        0.481463    0.564006    0.235595     0.007504
AU806   AU        0.519708    0.532990    0.236102     0.007504
PD807   PD        0.516969    0.561987    0.268752     0.005394
PD808   PD        0.556369    0.531022    0.269023     0.005394
AU809   AU        0.555238    0.563628    0.234775     0.007504
AU810   AU        0.593156    0.532321    0.237012     0.007504
AU811   AU        0.589966    0.565427    0.267926     0.007504
PD812   PD        0.626911    0.533469    0.269831     0.005394
PD813   PD        0.629970    0.567794    0.238144     0.005394
AU814   AU        0.661935    0.533243    0.236313     0.007504
AU815   AU        0.660722    0.565702    0.271278     0.007504
AU816   AU        0.698500    0.532962    0.268883     0.007504
AU817   AU        0.696555    0.565105    0.236609     0.007504
PD818   PD        0.734800    0.531428    0.237525     0.005394
PD819   PD        0.733328    0.565501    0.270212     0.005394
PD820   PD        0.767153    0.529877    0.274523     0.005394
PD821   PD        0.766668    0.564377    0.236526     0.005394
PD822   PD        0.806293    0.528870    0.239948     0.005394
AU823   AU        0.800596    0.562569    0.271964     0.007504
PD824   PD        0.840049    0.529902    0.271860     0.005394
PD825   PD        0.095841    0.660914    0.234944     0.005394
PD826   PD        0.125532    0.598672    0.271610     0.005394
PD827   PD        0.123327    0.629123    0.239575     0.005394
AU828   AU        0.161685    0.598035    0.237248     0.007504
AU829   AU        0.159975    0.629678    0.271299     0.007504
AU830   AU        0.198147    0.597715    0.269487     0.007504
AU831   AU        0.196636    0.632245    0.236555     0.007504
AU832   AU        0.232457    0.597980    0.234181     0.007504
AU833   AU        0.234709    0.631407    0.268317     0.007504
AU834   AU        0.268427    0.596662    0.269006     0.007504
PD835   PD        0.269092    0.629067    0.234107     0.005394
PD836   PD        0.303185    0.597191    0.234096     0.005394
PD837   PD        0.301573    0.629413    0.271469     0.005394
AU838   AU        0.339405    0.598240    0.267595     0.007504
PD839   PD        0.337413    0.630188    0.236709     0.005394
PD840   PD        0.373357    0.596834    0.236384     0.005394
PD841   PD        0.375643    0.629724    0.270308     0.005394
PD842   PD        0.410117    0.596416    0.268714     0.005394
PD843   PD        0.413919    0.632835    0.236397     0.005394
AU844   AU        0.448816    0.598417    0.235745     0.007504
PD845   PD        0.447029    0.629359    0.271934     0.005394
AU846   AU        0.482590    0.598383    0.269343     0.007504
AU847   AU        0.485100    0.631276    0.234826     0.007504
PD848   PD        0.520743    0.597691    0.236043     0.005394
AU849   AU        0.519894    0.632040    0.269943     0.007504
PD850   PD        0.552236    0.595546    0.270865     0.005394
AU851   AU        0.554495    0.631197    0.237145     0.007504
PD852   PD        0.589320    0.600652    0.236352     0.005394
PD853   PD        0.591805    0.632285    0.272494     0.005394
AU854   AU        0.624678    0.597531    0.269871     0.007504
AU855   AU        0.624493    0.630835    0.235385     0.007504
PD856   PD        0.661862    0.595028    0.235990     0.005394
PD857   PD        0.661074    0.629710    0.269987     0.005394
PD858   PD        0.695367    0.598180    0.270776     0.005394
AU859   AU        0.697323    0.631602    0.237139     0.007504
AU860   AU        0.731452    0.598191    0.236755     0.007504
AU861   AU        0.732464    0.630738    0.269264     0.007504
AU862   AU        0.768654    0.596442    0.270751     0.007504
AU863   AU        0.771374    0.631145    0.239725     0.007504
PD864   PD        0.805494    0.630110    0.272634     0.005394
PD865   PD        0.124552    0.664315    0.271530     0.005394
PD866   PD        0.163073    0.661321    0.234497     0.005394
PD867   PD        0.163964    0.695791    0.269411     0.005394
PD868   PD        0.198445    0.662018    0.270495     0.005394
PD869   PD        0.197428    0.694975    0.238011     0.005394
PD870   PD        0.237449    0.663520    0.236603     0.005394
AU871   AU        0.232586    0.696883    0.267914     0.007504
PD872   PD        0.268886    0.663172    0.266897     0.005394
PD873   PD        0.269911    0.696674    0.235088     0.005394
PD874   PD        0.302498    0.662747    0.234059     0.005394
PD875   PD        0.307930    0.698756    0.268351     0.005394
AU876   AU        0.339830    0.662414    0.267338     0.007504
AU877   AU        0.341878    0.696090    0.234913     0.007504
PD878   PD        0.377725    0.664782    0.234074     0.005394
PD879   PD        0.376229    0.698014    0.266171     0.005394
PD880   PD        0.413770    0.664028    0.268237     0.005394
PD881   PD        0.412224    0.698974    0.235635     0.005394
PD882   PD        0.447785    0.664297    0.235216     0.005394
AU883   AU        0.449969    0.697958    0.268313     0.007504
AU884   AU        0.485496    0.662861    0.267561     0.007504
PD885   PD        0.484564    0.697757    0.235774     0.005394
PD886   PD        0.521193    0.662756    0.235326     0.005394
AU887   AU        0.521217    0.697180    0.268757     0.007504
PD888   PD        0.558771    0.664127    0.269764     0.005394
AU889   AU        0.556506    0.697560    0.235156     0.007504
PD890   PD        0.592203    0.661854    0.235972     0.005394
AU891   AU        0.590136    0.697015    0.270761     0.007504
AU892   AU        0.627031    0.662441    0.269631     0.007504
AU893   AU        0.627201    0.694728    0.237927     0.007504
AU894   AU        0.661913    0.664740    0.236988     0.007504
PD895   PD        0.662290    0.695109    0.268614     0.005394
AU896   AU        0.697164    0.662738    0.268646     0.007504
AU897   AU        0.697457    0.698570    0.238234     0.007504
PD898   PD        0.732549    0.664319    0.238036     0.005394
PD899   PD        0.732981    0.697542    0.272006     0.005394
AU900   AU        0.765812    0.663123    0.271847     0.007504
PD901   PD        0.201890    0.770138    0.243555     0.005394
PD902   PD        0.234706    0.731879    0.237211     0.005394
PD903   PD        0.239829    0.766419    0.271231     0.005394
AU904   AU        0.270810    0.730172    0.268663     0.007504
PD905   PD        0.268004    0.765161    0.237423     0.005394
AU906   AU        0.305201    0.731240    0.237273     0.007504
AU907   AU        0.306741    0.763381    0.271377     0.007504
PD908   PD        0.340989    0.730120    0.267099     0.005394
AU909   AU        0.342559    0.763900    0.233859     0.007504
PD910   PD        0.378579    0.728999    0.233645     0.005394
PD911   PD        0.378946    0.763911    0.268710     0.005394
PD912   PD        0.412600    0.730371    0.265826     0.005394
AU913   AU        0.412237    0.763000    0.235937     0.007504
PD914   PD        0.448561    0.729872    0.235313     0.005394
AU915   AU        0.448637    0.760909    0.268083     0.007504
AU916   AU        0.485021    0.731732    0.268934     0.007504
AU917   AU        0.484501    0.762780    0.235307     0.007504
PD918   PD        0.521539    0.730220    0.237155     0.005394
AU919   AU        0.521128    0.761162    0.269123     0.007504
AU920   AU        0.555544    0.729225    0.267924     0.007504
AU921   AU        0.555934    0.763591    0.237248     0.007504
PD922   PD        0.591020    0.730226    0.235483     0.005394
AU923   AU        0.590571    0.763325    0.268831     0.007504
PD924   PD        0.624611    0.730562    0.270331     0.005394
AU925   AU        0.627734    0.762059    0.234645     0.007504
PD926   PD        0.660839    0.727340    0.239346     0.005394
PD927   PD        0.659471    0.766426    0.270451     0.005394
AU928   AU        0.697288    0.730918    0.270766     0.007504
PD929   PD        0.272811    0.796862    0.267402     0.005394
AU930   AU        0.345458    0.796667    0.267874     0.007504
AU931   AU        0.379828    0.797898    0.236148     0.007504
PD932   PD        0.379676    0.830809    0.269148     0.005394
PD933   PD        0.413767    0.794796    0.270934     0.005394
AU934   AU        0.448165    0.793288    0.235520     0.007504
PD935   PD        0.450660    0.828443    0.268012     0.005394
AU936   AU        0.483566    0.794615    0.268801     0.007504
AU937   AU        0.518553    0.795550    0.236250     0.007504
PD938   PD        0.503162    0.835697    0.217577     0.005394
AU939   AU        0.554698    0.796559    0.268663     0.007504
PD940   PD        0.626017    0.796264    0.266898     0.005394
AU941   AU        0.302743    0.098998    0.339945     0.007504
PD942   PD        0.341959    0.098466    0.304233     0.005394
PD943   PD        0.372449    0.098823    0.339004     0.005394
AU944   AU        0.409735    0.098577    0.304763     0.007504
AU945   AU        0.446893    0.101272    0.337618     0.007504
PD946   PD        0.481679    0.101416    0.305051     0.005394
PD947   PD        0.512483    0.101595    0.338367     0.005394
PD948   PD        0.555116    0.096449    0.299703     0.005394
PD949   PD        0.585894    0.101435    0.339328     0.005394
PD950   PD        0.197709    0.166432    0.303960     0.005394
PD951   PD        0.234946    0.166764    0.339141     0.005394
PD952   PD        0.268629    0.133769    0.337171     0.005394
PD953   PD        0.269084    0.166643    0.307317     0.005394
AU954   AU        0.302322    0.134794    0.304873     0.007504
AU955   AU        0.304197    0.166861    0.338681     0.007504
AU956   AU        0.337333    0.133573    0.337122     0.007504
PD957   PD        0.339003    0.166768    0.302566     0.005394
PD958   PD        0.374102    0.133476    0.305181     0.005394
AU959   AU        0.374209    0.165490    0.337256     0.007504
AU960   AU        0.409093    0.134355    0.336416     0.007504
AU961   AU        0.409198    0.166115    0.302666     0.007504
AU962   AU        0.444030    0.133351    0.304685     0.007504
PD963   PD        0.445362    0.168991    0.336537     0.005394
PD964   PD        0.481787    0.135344    0.341206     0.005394
PD965   PD        0.481418    0.164264    0.305292     0.005394
AU966   AU        0.519132    0.133838    0.304814     0.007504
PD967   PD        0.517593    0.167752    0.338133     0.005394
AU968   AU        0.550758    0.134138    0.340429     0.007504
AU969   AU        0.551293    0.166694    0.303731     0.007504
PD970   PD        0.584197    0.133421    0.305252     0.005394
AU971   AU        0.586628    0.164217    0.335725     0.007504
PD972   PD        0.623185    0.133058    0.336509     0.005394
PD973   PD        0.624410    0.165324    0.303647     0.005394
PD974   PD        0.659415    0.165646    0.337467     0.005394
PD975   PD        0.697106    0.162211    0.304078     0.005394
PD976   PD        0.084343    0.195995    0.244458     0.005394
PD977   PD        0.162537    0.201031    0.307974     0.005394
PD978   PD        0.125204    0.232843    0.304075     0.005394
PD979   PD        0.198866    0.200356    0.336940     0.005394
AU980   AU        0.199710    0.232659    0.305222     0.007504
PD981   PD        0.234367    0.197872    0.302423     0.005394
PD982   PD        0.235275    0.233269    0.339317     0.005394
AU983   AU        0.270569    0.200362    0.337918     0.007504
AU984   AU        0.268496    0.231885    0.305245     0.007504
AU985   AU        0.304666    0.199321    0.302534     0.007504
AU986   AU        0.305261    0.232650    0.336059     0.007504
AU987   AU        0.339230    0.198500    0.336956     0.007504
PD988   PD        0.338223    0.230993    0.302041     0.005394
AU989   AU        0.372597    0.198436    0.302963     0.007504
PD990   PD        0.374390    0.232099    0.334924     0.005394
PD991   PD        0.406446    0.198485    0.333798     0.005394
PD992   PD        0.410451    0.230998    0.305112     0.005394
PD993   PD        0.446095    0.197841    0.303691     0.005394
AU994   AU        0.448048    0.230083    0.337828     0.007504
PD995   PD        0.483540    0.200147    0.335332     0.005394
AU996   AU        0.483794    0.234033    0.303738     0.007504
AU997   AU        0.516968    0.199738    0.302736     0.007504
PD998   PD        0.519871    0.233866    0.336118     0.005394
AU999   AU        0.554244    0.198483    0.336706     0.007504
PD1000   PD        0.555330    0.230779    0.304524     0.005394
AU1001   AU        0.590811    0.198603    0.305211     0.007504
AU1002   AU        0.588900    0.231289    0.336673     0.007504
PD1003   PD        0.625253    0.197024    0.335508     0.005394
PD1004   PD        0.624622    0.228931    0.305126     0.005394
PD1005   PD        0.662720    0.196772    0.305393     0.005394
AU1006   AU        0.661401    0.228836    0.337807     0.007504
PD1007   PD        0.696253    0.198148    0.337596     0.005394
PD1008   PD        0.696844    0.231890    0.304070     0.005394
PD1009   PD        0.746925    0.159572    0.283477     0.005394
AU1010   AU        0.732275    0.229456    0.337874     0.007504
PD1011   PD        0.765196    0.226451    0.305004     0.005394
PD1012   PD        0.093176    0.299380    0.334317     0.005394
PD1013   PD        0.128575    0.265872    0.338858     0.005394
PD1014   PD        0.128216    0.299154    0.303230     0.005394
PD1015   PD        0.162355    0.266001    0.301588     0.005394
PD1016   PD        0.161089    0.299811    0.337093     0.005394
AU1017   AU        0.198587    0.265250    0.337903     0.007504
AU1018   AU        0.198079    0.299104    0.305845     0.007504
AU1019   AU        0.233549    0.266924    0.302853     0.007504
AU1020   AU        0.233218    0.296707    0.336311     0.007504
AU1021   AU        0.268323    0.267161    0.337629     0.007504
AU1022   AU        0.269164    0.297205    0.303062     0.007504
AU1023   AU        0.304101    0.264442    0.301621     0.007504
AU1024   AU        0.305365    0.298493    0.336886     0.007504
AU1025   AU        0.339256    0.265284    0.335823     0.007504
AU1026   AU        0.338350    0.297307    0.301825     0.007504
AU1027   AU        0.374214    0.263665    0.302822     0.007504
AU1028   AU        0.372710    0.298817    0.336170     0.007504
AU1029   AU        0.409560    0.263574    0.335763     0.007504
AU1030   AU        0.408546    0.298733    0.305017     0.007504
AU1031   AU        0.444888    0.264719    0.303229     0.007504
PD1032   PD        0.443225    0.298183    0.335404     0.005394
AU1033   AU        0.480253    0.266043    0.336320     0.007504
PD1034   PD        0.485834    0.296458    0.303135     0.005394
PD1035   PD        0.518869    0.263098    0.301362     0.005394
PD1036   PD        0.518264    0.297923    0.338527     0.005394
AU1037   AU        0.552971    0.264743    0.337129     0.007504
AU1038   AU        0.552881    0.297380    0.303732     0.007504
PD1039   PD        0.592524    0.262393    0.303417     0.005394
AU1040   AU        0.588432    0.297459    0.336366     0.007504
AU1041   AU        0.626241    0.262554    0.336411     0.007504
AU1042   AU        0.627427    0.296316    0.303419     0.007504
AU1043   AU        0.660096    0.263389    0.303700     0.007504
AU1044   AU        0.661745    0.295484    0.337196     0.007504
PD1045   PD        0.697124    0.264546    0.339146     0.005394
AU1046   AU        0.697895    0.296099    0.305472     0.007504
AU1047   AU        0.732150    0.263013    0.303681     0.007504
AU1048   AU        0.732644    0.296745    0.337973     0.007504
AU1049   AU        0.767767    0.265638    0.338588     0.007504
PD1050   PD        0.766372    0.300189    0.303392     0.005394
PD1051   PD        0.802614    0.300484    0.337044     0.005394
AU1052   AU        0.058662    0.329839    0.339287     0.007504
PD1053   PD        0.056562    0.359360    0.304285     0.005394
PD1054   PD        0.089002    0.335953    0.301179     0.005394
AU1055   AU        0.090456    0.365513    0.337861     0.007504
AU1056   AU        0.128043    0.332197    0.336899     0.007504
AU1057   AU        0.125992    0.366924    0.304894     0.007504
AU1058   AU        0.162074    0.333431    0.304631     0.007504
AU1059   AU        0.161571    0.365374    0.337389     0.007504
PD1060   PD        0.197595    0.331104    0.339004     0.005394
PD1061   PD        0.198202    0.364469    0.303213     0.005394
AU1062   AU        0.233910    0.329407    0.303823     0.007504
PD1063   PD        0.233595    0.364006    0.338168     0.005394
AU1064   AU        0.265955    0.332646    0.335841     0.007504
AU1065   AU        0.266386    0.366918    0.304401     0.007504
AU1066   AU        0.302614    0.331387    0.303430     0.007504
AU1067   AU        0.302690    0.366073    0.335638     0.007504
AU1068   AU        0.339641    0.330373    0.336985     0.007504
AU1069   AU        0.338540    0.363246    0.302448     0.007504
AU1070   AU        0.374003    0.330072    0.303342     0.007504
AU1071   AU        0.375782    0.365472    0.336267     0.007504
AU1072   AU        0.411721    0.332366    0.337383     0.007504
AU1073   AU        0.410231    0.365470    0.303326     0.007504
AU1074   AU        0.445196    0.330589    0.303097     0.007504
AU1075   AU        0.446173    0.363919    0.337781     0.007504
PD1076   PD        0.480043    0.329979    0.334165     0.005394
AU1077   AU        0.483489    0.362957    0.305069     0.007504
PD1078   PD        0.518121    0.332675    0.305149     0.005394
AU1079   AU        0.519683    0.364346    0.338364     0.007504
PD1080   PD        0.556290    0.332173    0.338784     0.005394
AU1081   AU        0.553418    0.364614    0.303735     0.007504
AU1082   AU        0.588712    0.329437    0.302537     0.007504
PD1083   PD        0.588600    0.361388    0.335788     0.005394
PD1084   PD        0.623457    0.329267    0.334629     0.005394
PD1085   PD        0.625048    0.362322    0.300369     0.005394
AU1086   AU        0.662254    0.329923    0.303968     0.007504
PD1087   PD        0.661250    0.363232    0.336864     0.005394
AU1088   AU        0.695835    0.329672    0.339358     0.007504
PD1089   PD        0.697342    0.362888    0.304483     0.005394
AU1090   AU        0.729567    0.330449    0.304977     0.007504
AU1091   AU        0.731411    0.362935    0.337596     0.007504
AU1092   AU        0.764415    0.329414    0.336104     0.007504
PD1093   PD        0.766112    0.363351    0.302748     0.005394
AU1094   AU        0.801657    0.330109    0.303399     0.007504
PD1095   PD        0.798099    0.364427    0.335882     0.005394
PD1096   PD        0.838624    0.331943    0.337572     0.005394
PD1097   PD        0.839663    0.361021    0.304362     0.005394
PD1098   PD        0.053928    0.398228    0.339790     0.005394
PD1099   PD        0.057489    0.431780    0.305238     0.005394
PD1100   PD        0.089583    0.400290    0.306293     0.005394
AU1101   AU        0.091427    0.432727    0.337695     0.007504
AU1102   AU        0.127630    0.399935    0.336756     0.007504
AU1103   AU        0.127377    0.434063    0.302811     0.007504
AU1104   AU        0.163303    0.398891    0.304308     0.007504
PD1105   PD        0.163176    0.432274    0.336094     0.005394
PD1106   PD        0.199142    0.400091    0.335465     0.005394
AU1107   AU        0.198383    0.432975    0.304438     0.007504
AU1108   AU        0.233049    0.397213    0.303554     0.007504
PD1109   PD        0.233656    0.432704    0.338192     0.005394
AU1110   AU        0.269663    0.398673    0.336847     0.007504
AU1111   AU        0.269502    0.432087    0.302955     0.007504
AU1112   AU        0.303800    0.398233    0.302949     0.007504
AU1113   AU        0.303271    0.432075    0.336743     0.007504
AU1114   AU        0.339347    0.397482    0.337041     0.007504
AU1115   AU        0.339614    0.430928    0.303157     0.007504
PD1116   PD        0.373372    0.397288    0.302328     0.005394
PD1117   PD        0.372713    0.431720    0.337646     0.005394
AU1118   AU        0.410404    0.396564    0.334716     0.007504
AU1119   AU        0.412465    0.431507    0.303992     0.007504
AU1120   AU        0.449287    0.399636    0.302750     0.007504
PD1121   PD        0.445412    0.429548    0.337140     0.005394
AU1122   AU        0.482149    0.395296    0.337507     0.007504
PD1123   PD        0.481052    0.432243    0.304263     0.005394
AU1124   AU        0.518200    0.397701    0.303564     0.007504
PD1125   PD        0.515624    0.429651    0.337685     0.005394
AU1126   AU        0.554756    0.395524    0.337594     0.007504
AU1127   AU        0.554944    0.430006    0.304114     0.007504
AU1128   AU        0.590381    0.397027    0.302438     0.007504
PD1129   PD        0.588261    0.429634    0.336600     0.005394
PD1130   PD        0.625238    0.394585    0.336622     0.005394
AU1131   AU        0.625855    0.431184    0.305025     0.007504
AU1132   AU        0.662628    0.396483    0.304764     0.007504
PD1133   PD        0.660110    0.429300    0.336693     0.005394
PD1134   PD        0.696139    0.394405    0.338376     0.005394
AU1135   AU        0.697474    0.432470    0.305343     0.007504
PD1136   PD        0.731130    0.397550    0.304243     0.005394
PD1137   PD        0.734324    0.428589    0.338290     0.005394
PD1138   PD        0.766180    0.396577    0.337638     0.005394
AU1139   AU        0.767441    0.432475    0.302814     0.007504
PD1140   PD        0.804534    0.395172    0.304849     0.005394
AU1141   AU        0.801880    0.428438    0.336030     0.007504
PD1142   PD        0.839882    0.394427    0.337548     0.005394
PD1143   PD        0.839499    0.430850    0.302598     0.005394
AU1144   AU        0.058520    0.466140    0.337406     0.007504
AU1145   AU        0.056503    0.500771    0.306329     0.007504
PD1146   PD        0.094182    0.468641    0.304261     0.005394
AU1147   AU        0.091823    0.499309    0.336587     0.007504
AU1148   AU        0.128554    0.465509    0.338332     0.007504
PD1149   PD        0.126577    0.499064    0.305782     0.005394
AU1150   AU        0.164045    0.467475    0.304131     0.007504
AU1151   AU        0.164323    0.499069    0.336783     0.007504
PD1152   PD        0.196922    0.462486    0.339889     0.005394
PD1153   PD        0.197155    0.497236    0.305220     0.005394
AU1154   AU        0.233826    0.464149    0.303531     0.007504
AU1155   AU        0.232821    0.497241    0.335191     0.007504
AU1156   AU        0.268345    0.464701    0.337264     0.007504
AU1157   AU        0.267841    0.496640    0.303692     0.007504
PD1158   PD        0.302279    0.464348    0.302370     0.005394
AU1159   AU        0.302420    0.497743    0.338357     0.007504
AU1160   AU        0.338461    0.465260    0.335609     0.007504
PD1161   PD        0.340687    0.497171    0.301975     0.005394
AU1162   AU        0.376702    0.464455    0.304158     0.007504
AU1163   AU        0.377306    0.496298    0.335876     0.007504
AU1164   AU        0.413111    0.465158    0.335082     0.007504
AU1165   AU        0.411471    0.498926    0.301658     0.007504
AU1166   AU        0.448842    0.464641    0.300863     0.007504
AU1167   AU        0.445363    0.499668    0.335509     0.007504
AU1168   AU        0.480160    0.465134    0.336058     0.007504
AU1169   AU        0.484078    0.497023    0.301925     0.007504
AU1170   AU        0.518330    0.462592    0.304609     0.007504
PD1171   PD        0.519508    0.498548    0.336422     0.005394
PD1172   PD        0.557001    0.463610    0.336832     0.005394
PD1173   PD        0.554689    0.494917    0.303921     0.005394
AU1174   AU        0.591908    0.465591    0.303194     0.007504
AU1175   AU        0.592536    0.496361    0.336499     0.007504
PD1176   PD        0.624703    0.465899    0.338047     0.005394
PD1177   PD        0.629772    0.496402    0.299862     0.005394
PD1178   PD        0.661422    0.466129    0.305530     0.005394
AU1179   AU        0.661484    0.496989    0.337846     0.007504
PD1180   PD        0.697754    0.463731    0.338808     0.005394
AU1181   AU        0.695936    0.498592    0.304497     0.007504
PD1182   PD        0.732657    0.466264    0.304685     0.005394
PD1183   PD        0.731401    0.497291    0.335486     0.005394
PD1184   PD        0.767689    0.462376    0.338764     0.005394
PD1185   PD        0.767850    0.495635    0.302227     0.005394
AU1186   AU        0.802498    0.463061    0.304652     0.007504
PD1187   PD        0.802553    0.497151    0.337132     0.005394
AU1188   AU        0.835823    0.462394    0.337063     0.007504
PD1189   PD        0.836811    0.495525    0.303538     0.005394
PD1190   PD        0.056038    0.533792    0.336876     0.005394
PD1191   PD        0.057842    0.563336    0.302828     0.005394
PD1192   PD        0.092621    0.531777    0.303811     0.005394
AU1193   AU        0.093137    0.564741    0.335936     0.007504
AU1194   AU        0.127963    0.532251    0.337876     0.007504
AU1195   AU        0.126377    0.564721    0.302448     0.007504
PD1196   PD        0.160142    0.532623    0.302810     0.005394
AU1197   AU        0.162475    0.562464    0.336365     0.007504
PD1198   PD        0.197982    0.530952    0.337379     0.005394
AU1199   AU        0.198460    0.562534    0.304074     0.007504
AU1200   AU        0.233743    0.530298    0.302821     0.007504
PD1201   PD        0.233111    0.564284    0.339775     0.005394
AU1202   AU        0.268538    0.532068    0.336391     0.007504
PD1203   PD        0.271410    0.565664    0.303361     0.005394
AU1204   AU        0.301263    0.529084    0.302297     0.007504
PD1205   PD        0.305762    0.564373    0.332526     0.005394
AU1206   AU        0.339888    0.530400    0.334855     0.007504
AU1207   AU        0.341203    0.563523    0.301194     0.007504
AU1208   AU        0.375222    0.529104    0.303799     0.007504
PD1209   PD        0.372669    0.564239    0.336631     0.005394
AU1210   AU        0.409788    0.531973    0.337278     0.007504
AU1211   AU        0.411785    0.564037    0.302951     0.007504
AU1212   AU        0.446479    0.530501    0.302875     0.007504
AU1213   AU        0.446062    0.563735    0.335564     0.007504
AU1214   AU        0.483782    0.534449    0.333100     0.007504
AU1215   AU        0.482954    0.565969    0.302419     0.007504
AU1216   AU        0.520163    0.531327    0.301051     0.007504
AU1217   AU        0.518605    0.566990    0.335819     0.007504
PD1218   PD        0.553003    0.533921    0.338891     0.005394
PD1219   PD        0.555365    0.563336    0.305223     0.005394
PD1220   PD        0.588344    0.531030    0.301262     0.005394
PD1221   PD        0.593044    0.566208    0.338502     0.005394
AU1222   AU        0.626204    0.530643    0.336405     0.007504
PD1223   PD        0.626241    0.563873    0.303379     0.005394
PD1224   PD        0.662024    0.531886    0.303636     0.005394
PD1225   PD        0.664382    0.566089    0.335653     0.005394
PD1226   PD        0.697115    0.530602    0.338529     0.005394
AU1227   AU        0.697593    0.564320    0.302975     0.007504
PD1228   PD        0.733304    0.529856    0.305731     0.005394
PD1229   PD        0.732737    0.564083    0.336249     0.005394
AU1230   AU        0.768456    0.530385    0.336902     0.007504
AU1231   AU        0.768413    0.563395    0.304458     0.007504
PD1232   PD        0.803375    0.530230    0.302960     0.005394
PD1233   PD        0.806725    0.562487    0.337609     0.005394
PD1234   PD        0.839213    0.531385    0.334968     0.005394
PD1235   PD        0.871561    0.577173    0.270632     0.005394
AU1236   AU        0.056953    0.595033    0.335020     0.007504
AU1237   AU        0.091486    0.597913    0.303359     0.007504
AU1238   AU        0.091628    0.629000    0.339365     0.007504
AU1239   AU        0.127941    0.597007    0.335734     0.007504
PD1240   PD        0.124968    0.632208    0.303695     0.005394
PD1241   PD        0.164197    0.596865    0.303077     0.005394
AU1242   AU        0.161774    0.629598    0.334604     0.007504
PD1243   PD        0.199272    0.599149    0.335222     0.005394
AU1244   AU        0.200255    0.630555    0.301206     0.007504
PD1245   PD        0.232232    0.594981    0.302755     0.005394
AU1246   AU        0.232437    0.632755    0.336642     0.007504
PD1247   PD        0.265246    0.598976    0.337541     0.005394
PD1248   PD        0.269890    0.632347    0.302107     0.005394
PD1249   PD        0.304570    0.597392    0.302562     0.005394
PD1250   PD        0.305439    0.629334    0.333115     0.005394
AU1251   AU        0.341952    0.598962    0.337067     0.007504
AU1252   AU        0.341776    0.629322    0.299857     0.007504
AU1253   AU        0.376371    0.596509    0.302204     0.007504
AU1254   AU        0.375105    0.631964    0.336539     0.007504
PD1255   PD        0.410887    0.597774    0.337872     0.005394
AU1256   AU        0.412596    0.630752    0.304300     0.007504
AU1257   AU        0.447766    0.599242    0.302530     0.007504
PD1258   PD        0.450098    0.630428    0.334500     0.005394
PD1259   PD        0.481824    0.599615    0.336347     0.005394
AU1260   AU        0.483795    0.631563    0.300367     0.007504
PD1261   PD        0.516397    0.598206    0.304769     0.005394
PD1262   PD        0.522428    0.630547    0.335988     0.005394
AU1263   AU        0.556414    0.597903    0.334569     0.007504
PD1264   PD        0.553908    0.629471    0.302334     0.005394
AU1265   AU        0.591482    0.598932    0.304553     0.007504
AU1266   AU        0.590079    0.629684    0.337034     0.007504
PD1267   PD        0.629423    0.596830    0.336463     0.005394
AU1268   AU        0.626709    0.631997    0.303342     0.007504
PD1269   PD        0.660112    0.599987    0.305317     0.005394
PD1270   PD        0.663185    0.631873    0.336637     0.005394
AU1271   AU        0.698781    0.597205    0.336639     0.007504
AU1272   AU        0.697656    0.629164    0.303975     0.007504
AU1273   AU        0.733796    0.595995    0.303070     0.007504
AU1274   AU        0.731555    0.629771    0.335162     0.007504
AU1275   AU        0.766391    0.597872    0.337120     0.007504
AU1276   AU        0.766789    0.629268    0.301631     0.007504
AU1277   AU        0.801075    0.595769    0.304744     0.007504
AU1278   AU        0.800959    0.629169    0.336387     0.007504
PD1279   PD        0.875631    0.630424    0.342000     0.005394
PD1280   PD        0.127787    0.662661    0.339636     0.005394
PD1281   PD        0.127523    0.730905    0.335121     0.005394
AU1282   AU        0.162370    0.664133    0.303938     0.007504
PD1283   PD        0.161489    0.696766    0.335017     0.005394
PD1284   PD        0.198153    0.663794    0.335451     0.005394
PD1285   PD        0.198255    0.697437    0.300503     0.005394
AU1286   AU        0.232877    0.663543    0.300681     0.007504
PD1287   PD        0.232617    0.697147    0.334346     0.005394
PD1288   PD        0.269531    0.663894    0.338691     0.005394
PD1289   PD        0.269664    0.695758    0.300332     0.005394
PD1290   PD        0.306289    0.665055    0.301676     0.005394
PD1291   PD        0.303524    0.697966    0.336953     0.005394
PD1292   PD        0.339034    0.664355    0.334209     0.005394
PD1293   PD        0.342508    0.696079    0.300244     0.005394
AU1294   AU        0.376421    0.663329    0.299979     0.007504
PD1295   PD        0.376901    0.699411    0.334863     0.005394
PD1296   PD        0.412255    0.667293    0.335231     0.005394
AU1297   AU        0.412288    0.697790    0.301300     0.007504
PD1298   PD        0.446384    0.665623    0.300492     0.005394
AU1299   AU        0.449341    0.698574    0.334476     0.007504
PD1300   PD        0.484940    0.664313    0.333909     0.005394
PD1301   PD        0.483337    0.696468    0.299579     0.005394
AU1302   AU        0.520014    0.662980    0.302343     0.007504
AU1303   AU        0.521379    0.697523    0.334267     0.007504
AU1304   AU        0.556113    0.663467    0.335806     0.007504
PD1305   PD        0.552701    0.696188    0.302214     0.005394
AU1306   AU        0.591300    0.662833    0.303707     0.007504
PD1307   PD        0.590624    0.699341    0.334714     0.005394
AU1308   AU        0.625259    0.665234    0.334346     0.007504
PD1309   PD        0.625469    0.697108    0.299737     0.005394
AU1310   AU        0.660739    0.664512    0.301604     0.007504
AU1311   AU        0.662283    0.697730    0.335550     0.007504
PD1312   PD        0.699038    0.665532    0.334128     0.005394
PD1313   PD        0.695321    0.696594    0.302090     0.005394
AU1314   AU        0.733098    0.665424    0.302355     0.007504
AU1315   AU        0.731610    0.697197    0.335089     0.007504
AU1316   AU        0.768189    0.663116    0.333377     0.007504
PD1317   PD        0.766829    0.697933    0.302763     0.005394
PD1318   PD        0.168959    0.799691    0.302213     0.005394
AU1319   AU        0.196700    0.729869    0.337000     0.007504
PD1320   PD        0.161363    0.763752    0.273247     0.005394
PD1321   PD        0.233404    0.731635    0.303160     0.005394
PD1322   PD        0.202335    0.763685    0.301707     0.005394
PD1323   PD        0.266639    0.731814    0.338202     0.005394
PD1324   PD        0.273900    0.764608    0.303536     0.005394
PD1325   PD        0.304561    0.729075    0.303059     0.005394
PD1326   PD        0.307575    0.763372    0.335841     0.005394
PD1327   PD        0.339071    0.729859    0.336705     0.005394
PD1328   PD        0.340848    0.765866    0.302337     0.005394
AU1329   AU        0.374514    0.731902    0.299678     0.007504
PD1330   PD        0.377591    0.764663    0.333393     0.005394
AU1331   AU        0.412233    0.728790    0.335191     0.007504
PD1332   PD        0.415728    0.757629    0.301371     0.005394
PD1333   PD        0.450293    0.732134    0.301917     0.005394
AU1334   AU        0.446156    0.763879    0.335802     0.007504
AU1335   AU        0.485217    0.730765    0.334544     0.007504
AU1336   AU        0.485860    0.763083    0.303622     0.007504
AU1337   AU        0.519955    0.729815    0.301162     0.007504
PD1338   PD        0.518742    0.763697    0.334819     0.005394
AU1339   AU        0.554922    0.729546    0.333772     0.007504
AU1340   AU        0.553467    0.763127    0.302780     0.007504
AU1341   AU        0.588540    0.731045    0.303081     0.007504
AU1342   AU        0.590900    0.763939    0.337560     0.007504
AU1343   AU        0.625896    0.730884    0.334528     0.007504
AU1344   AU        0.625177    0.763077    0.301773     0.007504
AU1345   AU        0.661712    0.730297    0.300796     0.007504
PD1346   PD        0.663237    0.760580    0.333838     0.005394
AU1347   AU        0.696549    0.729744    0.333902     0.007504
PD1348   PD        0.733849    0.762476    0.338021     0.005394
AU1349   AU        0.733015    0.731182    0.303677     0.007504
AU1350   AU        0.272616    0.793735    0.336703     0.007504
PD1351   PD        0.310410    0.795476    0.300854     0.005394
AU1352   AU        0.307235    0.829098    0.334782     0.007504
AU1353   AU        0.341809    0.794759    0.334315     0.007504
AU1354   AU        0.342325    0.827242    0.302354     0.007504
PD1355   PD        0.380283    0.794936    0.303721     0.005394
AU1356   AU        0.376467    0.828458    0.336294     0.007504
PD1357   PD        0.411656    0.797533    0.336488     0.005394
PD1358   PD        0.413206    0.827478    0.301270     0.005394
AU1359   AU        0.447772    0.795214    0.301815     0.007504
PD1360   PD        0.449124    0.828856    0.335864     0.005394
PD1361   PD        0.483825    0.795999    0.335181     0.005394
PD1362   PD        0.482805    0.831190    0.299319     0.005394
AU1363   AU        0.519272    0.795398    0.301961     0.007504
PD1364   PD        0.518249    0.828524    0.333910     0.005394
AU1365   AU        0.556452    0.796857    0.336301     0.007504
PD1366   PD        0.592659    0.830043    0.273580     0.005394
AU1367   AU        0.588357    0.795055    0.300596     0.007504
AU1368   AU        0.592396    0.826806    0.335430     0.007504
AU1369   AU        0.626648    0.794519    0.334323     0.007504
AU1370   AU        0.266888    0.101661    0.372365     0.007504
AU1371   AU        0.304252    0.099721    0.403907     0.007504
AU1372   AU        0.339130    0.100754    0.371539     0.007504
AU1373   AU        0.375104    0.099440    0.403246     0.007504
PD1374   PD        0.409339    0.068650    0.404852     0.005394
AU1375   AU        0.409288    0.100958    0.370728     0.007504
PD1376   PD        0.442247    0.066692    0.370499     0.005394
AU1377   AU        0.446034    0.101569    0.403019     0.007504
PD1378   PD        0.477026    0.068821    0.401258     0.005394
AU1379   AU        0.479630    0.100935    0.370334     0.007504
PD1380   PD        0.517692    0.101791    0.402995     0.005394
PD1381   PD        0.550524    0.098279    0.371409     0.005394
PD1382   PD        0.586342    0.101102    0.402978     0.005394
PD1383   PD        0.622842    0.100602    0.372026     0.005394
PD1384   PD        0.163773    0.168644    0.404930     0.005394
PD1385   PD        0.195541    0.132387    0.405915     0.005394
PD1386   PD        0.194234    0.166189    0.367171     0.005394
PD1387   PD        0.233258    0.133205    0.371310     0.005394
PD1388   PD        0.230839    0.166148    0.401668     0.005394
AU1389   AU        0.268685    0.132620    0.405375     0.007504
AU1390   AU        0.268643    0.168033    0.371067     0.007504
AU1391   AU        0.303406    0.134398    0.371587     0.007504
AU1392   AU        0.301802    0.166361    0.403461     0.007504
AU1393   AU        0.340628    0.135328    0.402436     0.007504
AU1394   AU        0.338124    0.167040    0.371129     0.007504
PD1395   PD        0.372695    0.134989    0.370195     0.005394
PD1396   PD        0.374025    0.168380    0.404857     0.005394
AU1397   AU        0.409590    0.133786    0.402864     0.007504
PD1398   PD        0.409286    0.166476    0.370978     0.005394
AU1399   AU        0.446057    0.135067    0.370946     0.007504
PD1400   PD        0.447875    0.167649    0.405536     0.005394
AU1401   AU        0.483359    0.132631    0.403886     0.007504
AU1402   AU        0.480714    0.166492    0.370878     0.007504
PD1403   PD        0.515807    0.133678    0.372818     0.005394
AU1404   AU        0.517702    0.165922    0.402875     0.007504
AU1405   AU        0.552283    0.134759    0.402347     0.007504
PD1406   PD        0.554166    0.166646    0.369214     0.005394
PD1407   PD        0.588992    0.132350    0.369902     0.005394
AU1408   AU        0.588814    0.166739    0.403487     0.007504
AU1409   AU        0.622685    0.133910    0.404072     0.007504
AU1410   AU        0.623454    0.165774    0.371219     0.007504
PD1411   PD        0.658682    0.097693    0.342455     0.005394
PD1412   PD        0.659601    0.166355    0.404978     0.005394
PD1413   PD        0.694864    0.130422    0.404273     0.005394
PD1414   PD        0.694253    0.165512    0.369796     0.005394
PD1415   PD        0.729317    0.164107    0.406124     0.005394
AU1416   AU        0.092949    0.232873    0.402584     0.007504
PD1417   PD        0.125688    0.198860    0.406663     0.005394
AU1418   AU        0.128840    0.233644    0.373259     0.007504
AU1419   AU        0.161836    0.198877    0.371081     0.007504
AU1420   AU        0.163198    0.231915    0.405558     0.007504
AU1421   AU        0.198754    0.200441    0.400944     0.007504
AU1422   AU        0.198717    0.232786    0.370796     0.007504
AU1423   AU        0.234423    0.200101    0.371350     0.007504
AU1424   AU        0.234954    0.233258    0.404203     0.007504
PD1425   PD        0.267716    0.198263    0.405851     0.005394
PD1426   PD        0.268986    0.233531    0.369374     0.005394
PD1427   PD        0.304035    0.199819    0.371381     0.005394
PD1428   PD        0.302416    0.232311    0.404642     0.005394
AU1429   AU        0.337998    0.197360    0.404149     0.007504
PD1430   PD        0.339379    0.230572    0.370559     0.005394
PD1431   PD        0.373958    0.197438    0.370313     0.005394
AU1432   AU        0.374067    0.230164    0.404038     0.007504
PD1433   PD        0.411140    0.198499    0.403722     0.005394
PD1434   PD        0.411523    0.232308    0.370030     0.005394
PD1435   PD        0.444361    0.198512    0.369583     0.005394
PD1436   PD        0.447721    0.232785    0.406054     0.005394
PD1437   PD        0.483984    0.198605    0.404437     0.005394
AU1438   AU        0.482193    0.232149    0.370273     0.007504
AU1439   AU        0.518731    0.198565    0.369131     0.007504
PD1440   PD        0.516807    0.230537    0.403213     0.005394
PD1441   PD        0.553890    0.199419    0.402810     0.005394
AU1442   AU        0.554796    0.230383    0.371899     0.007504
PD1443   PD        0.589682    0.196922    0.367616     0.005394
AU1444   AU        0.591104    0.229853    0.403081     0.007504
PD1445   PD        0.626156    0.198956    0.402910     0.005394
AU1446   AU        0.626365    0.230316    0.368345     0.007504
PD1447   PD        0.659081    0.197194    0.370614     0.005394
AU1448   AU        0.660413    0.229232    0.401939     0.007504
PD1449   PD        0.695707    0.195646    0.405036     0.005394
AU1450   AU        0.695945    0.229810    0.370506     0.007504
AU1451   AU        0.732647    0.198206    0.371167     0.007504
AU1452   AU        0.729883    0.229109    0.403175     0.007504
PD1453   PD        0.769762    0.197511    0.403297     0.005394
PD1454   PD        0.768159    0.232541    0.373632     0.005394
PD1455   PD        0.801673    0.228107    0.407247     0.005394
PD1456   PD        0.058223    0.300339    0.374157     0.005394
PD1457   PD        0.094174    0.267252    0.369928     0.005394
PD1458   PD        0.093806    0.297964    0.404706     0.005394
AU1459   AU        0.126939    0.269194    0.405264     0.007504
PD1460   PD        0.129408    0.301237    0.372136     0.005394
AU1461   AU        0.161505    0.266423    0.372818     0.007504
AU1462   AU        0.163311    0.299662    0.404884     0.007504
AU1463   AU        0.196646    0.265446    0.403452     0.007504
PD1464   PD        0.199246    0.298929    0.372902     0.005394
AU1465   AU        0.233340    0.266447    0.370367     0.007504
AU1466   AU        0.232435    0.298567    0.405250     0.007504
PD1467   PD        0.270019    0.265960    0.402742     0.005394
AU1468   AU        0.267097    0.298206    0.370937     0.007504
AU1469   AU        0.304606    0.264770    0.370767     0.007504
AU1470   AU        0.303143    0.298922    0.402420     0.007504
PD1471   PD        0.338032    0.265480    0.404261     0.005394
AU1472   AU        0.338863    0.298240    0.369925     0.007504
PD1473   PD        0.374398    0.264371    0.369996     0.005394
PD1474   PD        0.374338    0.296036    0.402585     0.005394
AU1475   AU        0.408555    0.263776    0.405236     0.007504
AU1476   AU        0.408965    0.295073    0.370009     0.007504
AU1477   AU        0.445421    0.265554    0.370153     0.007504
AU1478   AU        0.445468    0.295864    0.403437     0.007504
PD1479   PD        0.481648    0.264223    0.404157     0.005394
PD1480   PD        0.482846    0.294995    0.369571     0.005394
AU1481   AU        0.518950    0.264280    0.369748     0.007504
AU1482   AU        0.518975    0.295230    0.404242     0.007504
AU1483   AU        0.555998    0.262539    0.404043     0.007504
AU1484   AU        0.555432    0.295043    0.370385     0.007504
AU1485   AU        0.590794    0.263441    0.369396     0.007504
AU1486   AU        0.592497    0.295862    0.403729     0.007504
AU1487   AU        0.625918    0.261807    0.403775     0.007504
AU1488   AU        0.624002    0.297242    0.370297     0.007504
AU1489   AU        0.659472    0.261886    0.368647     0.007504
PD1490   PD        0.660759    0.293460    0.403129     0.005394
AU1491   AU        0.694166    0.262223    0.402262     0.007504
AU1492   AU        0.697006    0.294116    0.369927     0.007504
PD1493   PD        0.731007    0.262443    0.370185     0.005394
PD1494   PD        0.728369    0.298791    0.403826     0.005394
AU1495   AU        0.763885    0.263526    0.404647     0.007504
AU1496   AU        0.764187    0.296053    0.372660     0.007504
PD1497   PD        0.802841    0.267647    0.372875     0.005394
PD1498   PD        0.800083    0.298124    0.404423     0.005394
PD1499   PD        0.839677    0.298215    0.367930     0.005394
PD1500   PD        0.057397    0.332547    0.405028     0.005394
PD1501   PD        0.055704    0.364233    0.370542     0.005394
AU1502   AU        0.092205    0.333453    0.370673     0.007504
AU1503   AU        0.090995    0.368206    0.404155     0.007504
PD1504   PD        0.129507    0.332384    0.401634     0.005394
PD1505   PD        0.127141    0.364401    0.367948     0.005394
PD1506   PD        0.163759    0.331819    0.369949     0.005394
AU1507   AU        0.163392    0.365544    0.403445     0.007504
PD1508   PD        0.199038    0.332532    0.403485     0.005394
AU1509   AU        0.197293    0.364811    0.370053     0.007504
AU1510   AU        0.233870    0.329445    0.370441     0.007504
AU1511   AU        0.233414    0.366514    0.404116     0.007504
AU1512   AU        0.270310    0.331478    0.403246     0.007504
AU1513   AU        0.269231    0.365522    0.368464     0.007504
AU1514   AU        0.304470    0.330764    0.369143     0.007504
AU1515   AU        0.303291    0.366658    0.400464     0.007504
PD1516   PD        0.339331    0.331622    0.402711     0.005394
AU1517   AU        0.340595    0.365046    0.369568     0.007504
AU1518   AU        0.373876    0.330401    0.370098     0.007504
AU1519   AU        0.375884    0.364528    0.403220     0.007504
PD1520   PD        0.410492    0.330378    0.402866     0.005394
AU1521   AU        0.408202    0.364901    0.368659     0.007504
PD1522   PD        0.444304    0.329991    0.369511     0.005394
PD1523   PD        0.447171    0.362309    0.403661     0.005394
AU1524   AU        0.482748    0.328949    0.404646     0.007504
AU1525   AU        0.482902    0.361691    0.372077     0.007504
AU1526   AU        0.520501    0.329234    0.370574     0.007504
AU1527   AU        0.517054    0.364792    0.404282     0.007504
AU1528   AU        0.555732    0.332137    0.403232     0.007504
AU1529   AU        0.553997    0.364130    0.371721     0.007504
PD1530   PD        0.587497    0.329534    0.371612     0.005394
PD1531   PD        0.592256    0.364308    0.405352     0.005394
PD1532   PD        0.626231    0.329769    0.404569     0.005394
AU1533   AU        0.624296    0.363545    0.368905     0.007504
PD1534   PD        0.658017    0.330581    0.369895     0.005394
PD1535   PD        0.661752    0.362865    0.404565     0.005394
PD1536   PD        0.693780    0.327871    0.403446     0.005394
AU1537   AU        0.695341    0.361005    0.371307     0.007504
PD1538   PD        0.729491    0.329582    0.368678     0.005394
AU1539   AU        0.732528    0.363451    0.402208     0.007504
PD1540   PD        0.765063    0.327678    0.404702     0.005394
PD1541   PD        0.764923    0.361518    0.369150     0.005394
AU1542   AU        0.799253    0.330146    0.371900     0.007504
PD1543   PD        0.804167    0.362783    0.405454     0.005394
AU1544   AU        0.836654    0.328529    0.404804     0.007504
PD1545   PD        0.837466    0.361433    0.370485     0.005394
AU1546   AU        0.018852    0.433310    0.401916     0.007504
PD1547   PD        0.054496    0.401885    0.402834     0.005394
PD1548   PD        0.055721    0.429669    0.370211     0.005394
AU1549   AU        0.088983    0.398403    0.369437     0.007504
AU1550   AU        0.090255    0.431219    0.403806     0.007504
AU1551   AU        0.128226    0.400279    0.402778     0.007504
PD1552   PD        0.125586    0.431606    0.369564     0.005394
AU1553   AU        0.161596    0.399483    0.369184     0.007504
PD1554   PD        0.163679    0.433021    0.401771     0.005394
AU1555   AU        0.196737    0.399706    0.401619     0.007504
AU1556   AU        0.200435    0.430949    0.370645     0.007504
AU1557   AU        0.233242    0.396527    0.370619     0.007504
AU1558   AU        0.232252    0.431152    0.405114     0.007504
AU1559   AU        0.267537    0.396962    0.401910     0.007504
PD1560   PD        0.268805    0.430150    0.369438     0.005394
PD1561   PD        0.305152    0.400139    0.370078     0.005394
AU1562   AU        0.304058    0.429327    0.403736     0.007504
PD1563   PD        0.341437    0.396953    0.404818     0.005394
AU1564   AU        0.340229    0.431056    0.369746     0.007504
AU1565   AU        0.374515    0.397875    0.369603     0.007504
PD1566   PD        0.374704    0.428248    0.403175     0.005394
AU1567   AU        0.408662    0.397563    0.404230     0.007504
AU1568   AU        0.411005    0.431356    0.371180     0.007504
PD1569   PD        0.443289    0.399848    0.368583     0.005394
AU1570   AU        0.447612    0.430363    0.402897     0.007504
AU1571   AU        0.481714    0.396451    0.403526     0.007504
AU1572   AU        0.482990    0.432001    0.370792     0.007504
AU1573   AU        0.518872    0.397411    0.370500     0.007504
AU1574   AU        0.518283    0.432065    0.404378     0.007504
AU1575   AU        0.553604    0.397910    0.403285     0.007504
AU1576   AU        0.555569    0.430038    0.370329     0.007504
AU1577   AU        0.590718    0.396376    0.371153     0.007504
AU1578   AU        0.591501    0.431122    0.404600     0.007504
PD1579   PD        0.625047    0.397620    0.403992     0.005394
AU1580   AU        0.627161    0.431612    0.370852     0.007504
AU1581   AU        0.660068    0.394841    0.370715     0.007504
AU1582   AU        0.660334    0.431320    0.405236     0.007504
PD1583   PD        0.697110    0.395311    0.401843     0.005394
PD1584   PD        0.695661    0.428789    0.368270     0.005394
PD1585   PD        0.732992    0.398758    0.369221     0.005394
AU1586   AU        0.734194    0.428815    0.404440     0.007504
AU1587   AU        0.771066    0.397169    0.402430     0.007504
PD1588   PD        0.769581    0.431070    0.370864     0.005394
PD1589   PD        0.803955    0.397004    0.369756     0.005394
PD1590   PD        0.804864    0.431943    0.402441     0.005394
AU1591   AU        0.837516    0.398339    0.402429     0.007504
AU1592   AU        0.836575    0.430435    0.370028     0.007504
PD1593   PD        0.875485    0.431297    0.401417     0.005394
PD1594   PD        0.024980    0.433422    0.339030     0.005394
PD1595   PD        0.019062    0.495405    0.401821     0.005394
AU1596   AU        0.057756    0.465532    0.400716     0.007504
PD1597   PD        0.055969    0.499613    0.371301     0.005394
AU1598   AU        0.094733    0.467716    0.369659     0.007504
AU1599   AU        0.091894    0.497355    0.402971     0.007504
AU1600   AU        0.126931    0.465599    0.405096     0.007504
AU1601   AU        0.128157    0.499550    0.371628     0.007504
AU1602   AU        0.162209    0.464327    0.371515     0.007504
AU1603   AU        0.165100    0.496231    0.402294     0.007504
PD1604   PD        0.197699    0.463366    0.402382     0.005394
AU1605   AU        0.197852    0.497399    0.368329     0.007504
AU1606   AU        0.234813    0.465508    0.371901     0.007504
AU1607   AU        0.232730    0.498232    0.405856     0.007504
AU1608   AU        0.270232    0.463815    0.405313     0.007504
AU1609   AU        0.268840    0.496745    0.371268     0.007504
AU1610   AU        0.302257    0.462671    0.371892     0.007504
AU1611   AU        0.305068    0.497163    0.403141     0.007504
AU1612   AU        0.339788    0.463913    0.402679     0.007504
AU1613   AU        0.338580    0.497912    0.370143     0.007504
AU1614   AU        0.375161    0.465836    0.372190     0.007504
AU1615   AU        0.376377    0.499268    0.403656     0.007504
AU1616   AU        0.411828    0.467011    0.404432     0.007504
PD1617   PD        0.410978    0.497304    0.367717     0.005394
AU1618   AU        0.446577    0.463857    0.369905     0.007504
AU1619   AU        0.448038    0.497868    0.402477     0.007504
AU1620   AU        0.482655    0.464735    0.402332     0.007504
AU1621   AU        0.483993    0.498344    0.368568     0.007504
AU1622   AU        0.519940    0.462844    0.369659     0.007504
AU1623   AU        0.518686    0.500127    0.403011     0.007504
AU1624   AU        0.554455    0.462855    0.402561     0.007504
PD1625   PD        0.554323    0.498433    0.370070     0.005394
PD1626   PD        0.588544    0.465389    0.373212     0.005394
AU1627   AU        0.590482    0.499739    0.402996     0.007504
PD1628   PD        0.624694    0.465231    0.404984     0.005394
PD1629   PD        0.626867    0.500203    0.372143     0.005394
PD1630   PD        0.661700    0.463714    0.370368     0.005394
AU1631   AU        0.661730    0.500519    0.403545     0.007504
PD1632   PD        0.697172    0.463262    0.403058     0.005394
PD1633   PD        0.696000    0.497435    0.368564     0.005394
PD1634   PD        0.734131    0.464666    0.367334     0.005394
AU1635   AU        0.734588    0.496129    0.404150     0.007504
AU1636   AU        0.768424    0.463055    0.402498     0.007504
AU1637   AU        0.770556    0.498831    0.369112     0.007504
AU1638   AU        0.803456    0.464595    0.371510     0.007504
AU1639   AU        0.803232    0.497120    0.403916     0.007504
AU1640   AU        0.837686    0.464826    0.402712     0.007504
AU1641   AU        0.836250    0.497845    0.370232     0.007504
PD1642   PD        0.871190    0.465591    0.367183     0.005394
AU1643   AU        0.872768    0.497120    0.400565     0.007504
PD1644   PD        0.055747    0.533241    0.402047     0.005394
PD1645   PD        0.056846    0.565924    0.369898     0.005394
AU1646   AU        0.090862    0.532743    0.368852     0.007504
PD1647   PD        0.093812    0.564159    0.403073     0.005394
PD1648   PD        0.128522    0.529175    0.402461     0.005394
AU1649   AU        0.128938    0.563875    0.370559     0.007504
AU1650   AU        0.163942    0.529822    0.370683     0.007504
PD1651   PD        0.165295    0.563184    0.401872     0.005394
PD1652   PD        0.197301    0.531054    0.401992     0.005394
AU1653   AU        0.199204    0.562142    0.369676     0.007504
PD1654   PD        0.234218    0.527359    0.367763     0.005394
AU1655   AU        0.231876    0.563540    0.404081     0.007504
AU1656   AU        0.268077    0.530757    0.401741     0.007504
PD1657   PD        0.268546    0.564855    0.369559     0.005394
AU1658   AU        0.303080    0.530520    0.369464     0.007504
AU1659   AU        0.306068    0.566446    0.403942     0.007504
AU1660   AU        0.339636    0.532244    0.405130     0.007504
AU1661   AU        0.340577    0.563956    0.370742     0.007504
AU1662   AU        0.376966    0.529947    0.367213     0.007504
AU1663   AU        0.378590    0.565148    0.401684     0.007504
AU1664   AU        0.412322    0.531250    0.402493     0.007504
AU1665   AU        0.411057    0.563784    0.369510     0.007504
AU1666   AU        0.447816    0.530720    0.368520     0.007504
AU1667   AU        0.446812    0.563911    0.402894     0.007504
AU1668   AU        0.481139    0.531395    0.402773     0.007504
AU1669   AU        0.482453    0.566440    0.369498     0.007504
AU1670   AU        0.517013    0.534785    0.369692     0.007504
AU1671   AU        0.520025    0.566117    0.403919     0.007504
AU1672   AU        0.556887    0.530299    0.402939     0.007504
AU1673   AU        0.556255    0.567306    0.371100     0.007504
PD1674   PD        0.590413    0.531291    0.370123     0.005394
AU1675   AU        0.592308    0.565306    0.404512     0.007504
AU1676   AU        0.626465    0.533696    0.403886     0.007504
PD1677   PD        0.628926    0.565975    0.372039     0.005394
AU1678   AU        0.663232    0.532734    0.369081     0.007504
AU1679   AU        0.660971    0.565805    0.405280     0.007504
AU1680   AU        0.699674    0.531068    0.402424     0.007504
PD1681   PD        0.699069    0.564557    0.369589     0.005394
PD1682   PD        0.735099    0.531495    0.370362     0.005394
PD1683   PD        0.734361    0.565803    0.402627     0.005394
AU1684   AU        0.768477    0.530035    0.403114     0.007504
AU1685   AU        0.768098    0.565383    0.369530     0.007504
AU1686   AU        0.801934    0.532817    0.369980     0.007504
AU1687   AU        0.802476    0.565164    0.401451     0.007504
AU1688   AU        0.836021    0.532599    0.401592     0.007504
PD1689   PD        0.841452    0.567130    0.370545     0.005394
PD1690   PD        0.018914    0.568080    0.405544     0.005394
PD1691   PD        0.058298    0.627623    0.373311     0.005394
AU1692   AU        0.093835    0.594971    0.368369     0.007504
AU1693   AU        0.095395    0.627407    0.400712     0.007504
PD1694   PD        0.128555    0.596202    0.401010     0.005394
PD1695   PD        0.126562    0.628805    0.372005     0.005394
AU1696   AU        0.163126    0.597337    0.369946     0.007504
AU1697   AU        0.163960    0.631010    0.402381     0.007504
AU1698   AU        0.199179    0.596238    0.404911     0.007504
AU1699   AU        0.196285    0.631775    0.369757     0.007504
PD1700   PD        0.229633    0.597875    0.371895     0.005394
AU1701   AU        0.231999    0.630143    0.403365     0.007504
PD1702   PD        0.268728    0.598826    0.401786     0.005394
AU1703   AU        0.268473    0.631205    0.370011     0.007504
AU1704   AU        0.305877    0.596525    0.369220     0.007504
AU1705   AU        0.303830    0.632289    0.403594     0.007504
PD1706   PD        0.345461    0.597917    0.401296     0.005394
AU1707   AU        0.340154    0.632838    0.370008     0.007504
AU1708   AU        0.377468    0.596613    0.370726     0.007504
AU1709   AU        0.376514    0.632534    0.401787     0.007504
AU1710   AU        0.412002    0.599417    0.402638     0.007504
AU1711   AU        0.414209    0.632515    0.369162     0.007504
PD1712   PD        0.445909    0.599752    0.368313     0.005394
PD1713   PD        0.450815    0.631051    0.404237     0.005394
AU1714   AU        0.483903    0.598580    0.403349     0.007504
PD1715   PD        0.482160    0.631335    0.369148     0.005394
PD1716   PD        0.518458    0.599098    0.369194     0.005394
AU1717   AU        0.520056    0.632531    0.402054     0.007504
AU1718   AU        0.554784    0.600028    0.404052     0.007504
AU1719   AU        0.557014    0.631322    0.368797     0.007504
PD1720   PD        0.591117    0.598097    0.370320     0.005394
AU1721   AU        0.593709    0.633016    0.401128     0.007504
AU1722   AU        0.628933    0.598436    0.403977     0.007504
AU1723   AU        0.626764    0.631988    0.369976     0.007504
AU1724   AU        0.663768    0.598356    0.368235     0.007504
PD1725   PD        0.662181    0.631082    0.402009     0.005394
AU1726   AU        0.697969    0.596401    0.403428     0.007504
PD1727   PD        0.698125    0.632925    0.369941     0.005394
AU1728   AU        0.732607    0.598050    0.370268     0.007504
AU1729   AU        0.730925    0.631856    0.403223     0.007504
AU1730   AU        0.766056    0.598422    0.402624     0.007504
PD1731   PD        0.764021    0.631848    0.368081     0.005394
AU1732   AU        0.801456    0.597755    0.370659     0.007504
PD1733   PD        0.802489    0.629146    0.401132     0.005394
AU1734   AU        0.838275    0.596557    0.404244     0.007504
AU1735   AU        0.838308    0.630492    0.368866     0.007504
PD1736   PD        0.091703    0.662386    0.370334     0.005394
PD1737   PD        0.087055    0.696286    0.404194     0.005394
AU1738   AU        0.125674    0.664042    0.401592     0.007504
PD1739   PD        0.125181    0.698749    0.370401     0.005394
PD1740   PD        0.161509    0.662060    0.368328     0.005394
PD1741   PD        0.161181    0.694894    0.404524     0.005394
PD1742   PD        0.196248    0.664438    0.404884     0.005394
PD1743   PD        0.196768    0.694453    0.369129     0.005394
PD1744   PD        0.232537    0.663617    0.372241     0.005394
PD1745   PD        0.232115    0.699034    0.402217     0.005394
AU1746   AU        0.269923    0.663808    0.404001     0.007504
PD1747   PD        0.269676    0.697963    0.370657     0.005394
PD1748   PD        0.304919    0.664180    0.370655     0.005394
PD1749   PD        0.304608    0.696552    0.404244     0.005394
PD1750   PD        0.339617    0.664723    0.404297     0.005394
PD1751   PD        0.340994    0.697381    0.369012     0.005394
PD1752   PD        0.375798    0.665493    0.369482     0.005394
AU1753   AU        0.375537    0.694255    0.403111     0.007504
PD1754   PD        0.412713    0.664639    0.403899     0.005394
PD1755   PD        0.413970    0.698672    0.367839     0.005394
AU1756   AU        0.448780    0.662959    0.367602     0.007504
AU1757   AU        0.448612    0.695924    0.400705     0.007504
PD1758   PD        0.482630    0.664204    0.401267     0.005394
PD1759   PD        0.485823    0.696355    0.369753     0.005394
AU1760   AU        0.521655    0.665371    0.368505     0.007504
AU1761   AU        0.523071    0.696478    0.400015     0.007504
AU1762   AU        0.557585    0.664189    0.401794     0.007504
AU1763   AU        0.557822    0.698074    0.366907     0.007504
AU1764   AU        0.591059    0.665693    0.368232     0.007504
AU1765   AU        0.591582    0.696565    0.402961     0.007504
PD1766   PD        0.628081    0.664244    0.404280     0.005394
AU1767   AU        0.626087    0.698548    0.370449     0.007504
AU1768   AU        0.662456    0.664133    0.367157     0.007504
PD1769   PD        0.663239    0.696155    0.406595     0.005394
PD1770   PD        0.696132    0.664237    0.401910     0.005394
AU1771   AU        0.695732    0.697611    0.367922     0.007504
PD1772   PD        0.731610    0.665426    0.366436     0.005394
AU1773   AU        0.732588    0.695984    0.401238     0.007504
AU1774   AU        0.767287    0.663505    0.400855     0.007504
PD1775   PD        0.769228    0.694165    0.364873     0.005394
PD1776   PD        0.802508    0.662414    0.367237     0.005394
PD1777   PD        0.800236    0.695464    0.400645     0.005394
PD1778   PD        0.127729    0.731122    0.401500     0.005394
PD1779   PD        0.160374    0.732211    0.369602     0.005394
AU1780   AU        0.164892    0.762929    0.404020     0.007504
PD1781   PD        0.196439    0.728495    0.401823     0.005394
PD1782   PD        0.197578    0.763731    0.369185     0.005394
PD1783   PD        0.231264    0.728524    0.371322     0.005394
PD1784   PD        0.231224    0.762420    0.404212     0.005394
AU1785   AU        0.268397    0.728605    0.403202     0.007504
AU1786   AU        0.266700    0.763384    0.370694     0.007504
AU1787   AU        0.301819    0.731516    0.369162     0.007504
PD1788   PD        0.303905    0.761482    0.403313     0.005394
PD1789   PD        0.341241    0.730793    0.398390     0.005394
PD1790   PD        0.342818    0.763482    0.367867     0.005394
AU1791   AU        0.378823    0.729807    0.367214     0.007504
PD1792   PD        0.374224    0.762892    0.402862     0.005394
AU1793   AU        0.411527    0.730198    0.402058     0.007504
PD1794   PD        0.413535    0.762340    0.368100     0.005394
AU1795   AU        0.449133    0.730787    0.369438     0.007504
PD1796   PD        0.449595    0.762686    0.403693     0.005394
PD1797   PD        0.488312    0.731004    0.403310     0.005394
PD1798   PD        0.484250    0.762901    0.367414     0.005394
AU1799   AU        0.520751    0.730569    0.367329     0.007504
AU1800   AU        0.520336    0.762582    0.400244     0.007504
AU1801   AU        0.555621    0.729932    0.403278     0.007504
PD1802   PD        0.555618    0.761431    0.367449     0.005394
PD1803   PD        0.594321    0.730896    0.368063     0.005394
PD1804   PD        0.591601    0.763526    0.401577     0.005394
PD1805   PD        0.627187    0.729473    0.404665     0.005394
PD1806   PD        0.627907    0.763248    0.368875     0.005394
PD1807   PD        0.659849    0.729851    0.370488     0.005394
PD1808   PD        0.663108    0.761154    0.401714     0.005394
AU1809   AU        0.697834    0.730518    0.400041     0.007504
PD1810   PD        0.699336    0.762934    0.370030     0.005394
AU1811   AU        0.732480    0.727150    0.367880     0.007504
PD1812   PD        0.733644    0.760121    0.399520     0.005394
PD1813   PD        0.768023    0.728943    0.398391     0.005394
PD1814   PD        0.198214    0.802407    0.402802     0.005394
PD1815   PD        0.234596    0.797333    0.368002     0.005394
PD1816   PD        0.267014    0.795136    0.403137     0.005394
PD1817   PD        0.271676    0.828418    0.367624     0.005394
AU1818   AU        0.306269    0.796417    0.369470     0.007504
PD1819   PD        0.305135    0.831638    0.404793     0.005394
PD1820   PD        0.341676    0.794440    0.402932     0.005394
PD1821   PD        0.339412    0.829194    0.370755     0.005394
AU1822   AU        0.373512    0.796761    0.367405     0.007504
AU1823   AU        0.375729    0.826481    0.401671     0.007504
AU1824   AU        0.410231    0.795086    0.400267     0.007504
AU1825   AU        0.410595    0.827915    0.368250     0.007504
PD1826   PD        0.447086    0.794621    0.371391     0.005394
PD1827   PD        0.449351    0.825673    0.397619     0.005394
AU1828   AU        0.486791    0.796731    0.401948     0.007504
PD1829   PD        0.521663    0.862239    0.370509     0.005394
PD1830   PD        0.520920    0.795754    0.368965     0.005394
AU1831   AU        0.523692    0.828876    0.403460     0.007504
PD1832   PD        0.556504    0.794805    0.401137     0.005394
AU1833   AU        0.558170    0.828976    0.369957     0.007504
PD1834   PD        0.593049    0.795652    0.369004     0.005394
AU1835   AU        0.591797    0.826874    0.402425     0.007504
AU1836   AU        0.627526    0.794720    0.403276     0.007504
PD1837   PD        0.701801    0.861010    0.335711     0.005394
PD1838   PD        0.663319    0.795502    0.370042     0.005394
PD1839   PD        0.700834    0.794371    0.400636     0.005394
AU1840   AU        0.413062    0.860789    0.400509     0.007504
PD1841   PD        0.448116    0.860491    0.367256     0.005394
PD1842   PD        0.484684    0.860099    0.401265     0.005394
AU1843   AU        0.267100    0.101553    0.437278     0.007504
AU1844   AU        0.303281    0.101766    0.468458     0.007504
PD1845   PD        0.338883    0.102239    0.436405     0.005394
PD1846   PD        0.372108    0.070074    0.437279     0.005394
AU1847   AU        0.375407    0.099651    0.468789     0.007504
AU1848   AU        0.410079    0.068141    0.469992     0.007504
AU1849   AU        0.412180    0.101980    0.437460     0.007504
AU1850   AU        0.444672    0.067694    0.434978     0.007504
AU1851   AU        0.445849    0.100712    0.470047     0.007504
PD1852   PD        0.481630    0.069667    0.468738     0.005394
AU1853   AU        0.480300    0.100497    0.437172     0.007504
PD1854   PD        0.512703    0.066445    0.433770     0.005394
PD1855   PD        0.517179    0.099476    0.470232     0.005394
PD1856   PD        0.550218    0.097487    0.434806     0.005394
PD1857   PD        0.584127    0.097005    0.468791     0.005394
PD1858   PD        0.624218    0.063890    0.469113     0.005394
PD1859   PD        0.163807    0.165825    0.468957     0.005394
PD1860   PD        0.201629    0.132717    0.470917     0.005394
AU1861   AU        0.197943    0.166964    0.436542     0.007504
AU1862   AU        0.232186    0.132816    0.438209     0.007504
AU1863   AU        0.232787    0.167128    0.472415     0.007504
PD1864   PD        0.267449    0.134246    0.471597     0.005394
PD1865   PD        0.268070    0.166744    0.438017     0.005394
AU1866   AU        0.304271    0.133490    0.437825     0.007504
AU1867   AU        0.302561    0.164953    0.470417     0.007504
PD1868   PD        0.339379    0.133795    0.471455     0.005394
PD1869   PD        0.338845    0.163530    0.437972     0.005394
AU1870   AU        0.375007    0.133915    0.435920     0.007504
PD1871   PD        0.376637    0.164317    0.471876     0.005394
AU1872   AU        0.410145    0.133199    0.470848     0.007504
PD1873   PD        0.409547    0.165690    0.438468     0.005394
PD1874   PD        0.447256    0.134258    0.435022     0.005394
PD1875   PD        0.444973    0.166126    0.471994     0.005394
AU1876   AU        0.479146    0.132109    0.469302     0.007504
PD1877   PD        0.482144    0.165492    0.435815     0.005394
AU1878   AU        0.517662    0.132439    0.436720     0.007504
PD1879   PD        0.516973    0.162857    0.472134     0.005394
AU1880   AU        0.552513    0.132969    0.467483     0.007504
AU1881   AU        0.553909    0.166351    0.435944     0.007504
AU1882   AU        0.586863    0.130596    0.435032     0.007504
AU1883   AU        0.586955    0.164312    0.470796     0.007504
PD1884   PD        0.623191    0.130367    0.466765     0.005394
AU1885   AU        0.624382    0.164846    0.436766     0.007504
PD1886   PD        0.659887    0.132731    0.437704     0.005394
PD1887   PD        0.657389    0.166194    0.469973     0.005394
AU1888   AU        0.696468    0.132410    0.469867     0.007504
PD1889   PD        0.691433    0.163246    0.436554     0.005394
PD1890   PD        0.734551    0.165345    0.472264     0.005394
AU1891   AU        0.092603    0.235294    0.468670     0.007504
PD1892   PD        0.087806    0.202870    0.437507     0.005394
AU1893   AU        0.128018    0.232200    0.436291     0.007504
PD1894   PD        0.162234    0.197603    0.437058     0.005394
AU1895   AU        0.163016    0.233373    0.469454     0.007504
AU1896   AU        0.196716    0.198553    0.471179     0.007504
PD1897   PD        0.199153    0.232506    0.435092     0.005394
AU1898   AU        0.230838    0.199452    0.436766     0.007504
PD1899   PD        0.232112    0.230558    0.470405     0.005394
PD1900   PD        0.267137    0.200146    0.470987     0.005394
PD1901   PD        0.268298    0.231860    0.437134     0.005394
AU1902   AU        0.303452    0.197842    0.439054     0.007504
PD1903   PD        0.301797    0.231709    0.468984     0.005394
AU1904   AU        0.337830    0.197787    0.470663     0.007504
AU1905   AU        0.339002    0.230054    0.436657     0.007504
AU1906   AU        0.374204    0.197628    0.439917     0.007504
AU1907   AU        0.375089    0.231391    0.471113     0.007504
PD1908   PD        0.411049    0.198200    0.472931     0.005394
PD1909   PD        0.410347    0.230449    0.439357     0.005394
AU1910   AU        0.446153    0.198307    0.438192     0.007504
AU1911   AU        0.446446    0.231175    0.468660     0.007504
AU1912   AU        0.480355    0.198100    0.470812     0.007504
PD1913   PD        0.482452    0.232611    0.435290     0.005394
PD1914   PD        0.519255    0.196628    0.437347     0.005394
PD1915   PD        0.518775    0.230466    0.470848     0.005394
AU1916   AU        0.551631    0.197586    0.470289     0.007504
AU1917   AU        0.555091    0.231023    0.434766     0.007504
AU1918   AU        0.589834    0.197158    0.437529     0.007504
PD1919   PD        0.589744    0.229967    0.473709     0.005394
PD1920   PD        0.627312    0.196375    0.469610     0.005394
AU1921   AU        0.624681    0.229899    0.438611     0.007504
AU1922   AU        0.658902    0.196542    0.437302     0.007504
AU1923   AU        0.659699    0.230686    0.470958     0.007504
AU1924   AU        0.695658    0.196996    0.470251     0.007504
PD1925   PD        0.696650    0.229431    0.435314     0.005394
AU1926   AU        0.730315    0.194932    0.437220     0.007504
PD1927   PD        0.732703    0.229893    0.470324     0.005394
PD1928   PD        0.766994    0.195768    0.469393     0.005394
PD1929   PD        0.765514    0.232767    0.436248     0.005394
PD1930   PD        0.760349    0.158379    0.504801     0.005394
PD1931   PD        0.058119    0.301433    0.438427     0.005394
PD1932   PD        0.091220    0.266217    0.434065     0.005394
PD1933   PD        0.092402    0.298106    0.471237     0.005394
PD1934   PD        0.130038    0.266232    0.469547     0.005394
PD1935   PD        0.127488    0.300806    0.437281     0.005394
AU1936   AU        0.163496    0.266683    0.435619     0.007504
PD1937   PD        0.161440    0.298151    0.470526     0.005394
PD1938   PD        0.196931    0.265565    0.468931     0.005394
PD1939   PD        0.196229    0.299644    0.437891     0.005394
AU1940   AU        0.232493    0.265889    0.439280     0.007504
AU1941   AU        0.231501    0.298039    0.470014     0.007504
AU1942   AU        0.268285    0.265919    0.470347     0.007504
AU1943   AU        0.268526    0.297453    0.437117     0.007504
PD1944   PD        0.304141    0.264033    0.438012     0.005394
AU1945   AU        0.305640    0.297738    0.469358     0.007504
AU1946   AU        0.337492    0.263924    0.469915     0.007504
AU1947   AU        0.340348    0.297035    0.434835     0.007504
PD1948   PD        0.373876    0.265062    0.435583     0.005394
AU1949   AU        0.376902    0.296651    0.470586     0.007504
AU1950   AU        0.411314    0.265682    0.469732     0.007504
AU1951   AU        0.409908    0.297005    0.437093     0.007504
AU1952   AU        0.445906    0.265134    0.437390     0.007504
AU1953   AU        0.447470    0.297485    0.470605     0.007504
AU1954   AU        0.482211    0.263884    0.468938     0.007504
AU1955   AU        0.482340    0.296775    0.437502     0.007504
PD1956   PD        0.520339    0.264189    0.438088     0.005394
PD1957   PD        0.518780    0.296338    0.469197     0.005394
AU1958   AU        0.553837    0.264046    0.469897     0.007504
PD1959   PD        0.553987    0.299637    0.437493     0.005394
PD1960   PD        0.588074    0.262611    0.436045     0.005394
AU1961   AU        0.591165    0.295025    0.469525     0.007504
AU1962   AU        0.625071    0.263967    0.469079     0.007504
AU1963   AU        0.625299    0.294423    0.436302     0.007504
PD1964   PD        0.661548    0.262461    0.435073     0.005394
AU1965   AU        0.660452    0.294461    0.467769     0.007504
AU1966   AU        0.695360    0.262467    0.470395     0.007504
AU1967   AU        0.696344    0.295764    0.436300     0.007504
AU1968   AU        0.731604    0.261632    0.438816     0.007504
AU1969   AU        0.731942    0.294493    0.469828     0.007504
PD1970   PD        0.768010    0.261680    0.469688     0.005394
AU1971   AU        0.768398    0.297385    0.439037     0.007504
AU1972   AU        0.803429    0.263420    0.439533     0.007504
AU1973   AU        0.804687    0.296110    0.470842     0.007504
PD1974   PD        0.838489    0.266826    0.406903     0.005394
AU1975   AU        0.053958    0.334476    0.468090     0.007504
AU1976   AU        0.057761    0.364685    0.436313     0.007504
AU1977   AU        0.092924    0.332492    0.435810     0.007504
PD1978   PD        0.090737    0.365250    0.470140     0.005394
PD1979   PD        0.129106    0.330649    0.471696     0.005394
PD1980   PD        0.127179    0.365823    0.435611     0.005394
AU1981   AU        0.160927    0.333030    0.438294     0.007504
PD1982   PD        0.162787    0.364539    0.470142     0.005394
AU1983   AU        0.197264    0.333526    0.471181     0.007504
AU1984   AU        0.198081    0.365543    0.437337     0.007504
AU1985   AU        0.234642    0.332129    0.437447     0.007504
AU1986   AU        0.234211    0.364579    0.469804     0.007504
AU1987   AU        0.269488    0.330943    0.469417     0.007504
AU1988   AU        0.270491    0.365975    0.438018     0.007504
AU1989   AU        0.303838    0.330795    0.434747     0.007504
AU1990   AU        0.303811    0.365445    0.470133     0.007504
AU1991   AU        0.337469    0.331960    0.471144     0.007504
PD1992   PD        0.339190    0.362725    0.435747     0.005394
AU1993   AU        0.374939    0.330176    0.436237     0.007504
AU1994   AU        0.373425    0.365041    0.471974     0.007504
PD1995   PD        0.408526    0.329087    0.470161     0.005394
AU1996   AU        0.410003    0.361778    0.438457     0.007504
AU1997   AU        0.446945    0.329171    0.437355     0.007504
AU1998   AU        0.447257    0.362065    0.471667     0.007504
AU1999   AU        0.484456    0.329637    0.471224     0.007504
AU2000   AU        0.483675    0.364310    0.436775     0.007504
AU2001   AU        0.519583    0.330395    0.435761     0.007504
PD2002   PD        0.520239    0.362408    0.468129     0.005394
AU2003   AU        0.554364    0.331097    0.468297     0.007504
PD2004   PD        0.555753    0.362686    0.433155     0.005394
PD2005   PD        0.590225    0.328437    0.438023     0.005394
PD2006   PD        0.587603    0.363817    0.469557     0.005394
AU2007   AU        0.626642    0.328380    0.471045     0.007504
AU2008   AU        0.625162    0.363673    0.436838     0.007504
AU2009   AU        0.660124    0.327497    0.436785     0.007504
PD2010   PD        0.661202    0.364000    0.470974     0.005394
PD2011   PD        0.694878    0.328958    0.469085     0.005394
PD2012   PD        0.693697    0.359589    0.437734     0.005394
PD2013   PD        0.729087    0.330196    0.438658     0.005394
PD2014   PD        0.733553    0.362782    0.470945     0.005394
PD2015   PD        0.766285    0.329826    0.471353     0.005394
PD2016   PD        0.765391    0.363746    0.438510     0.005394
AU2017   AU        0.802917    0.331997    0.438575     0.007504
PD2018   PD        0.803188    0.364098    0.471005     0.005394
AU2019   AU        0.840159    0.329830    0.472557     0.007504
PD2020   PD        0.840838    0.365399    0.435799     0.005394
PD2021   PD        0.018750    0.400713    0.435647     0.005394
PD2022   PD        0.023063    0.433079    0.468114     0.005394
PD2023   PD        0.057056    0.398595    0.470040     0.005394
AU2024   AU        0.054868    0.431064    0.435417     0.007504
PD2025   PD        0.092069    0.399726    0.437038     0.005394
AU2026   AU        0.091589    0.432121    0.470230     0.007504
AU2027   AU        0.127749    0.399125    0.471004     0.007504
PD2028   PD        0.127631    0.431166    0.437466     0.005394
AU2029   AU        0.163507    0.398198    0.437644     0.007504
AU2030   AU        0.162736    0.431016    0.473025     0.007504
AU2031   AU        0.197974    0.399360    0.470530     0.007504
AU2032   AU        0.196703    0.431310    0.438607     0.007504
PD2033   PD        0.235622    0.397641    0.438858     0.005394
AU2034   AU        0.235229    0.431417    0.468848     0.007504
AU2035   AU        0.269046    0.397696    0.470338     0.007504
AU2036   AU        0.268818    0.431137    0.436196     0.007504
AU2037   AU        0.305055    0.397508    0.435160     0.007504
AU2038   AU        0.304794    0.430331    0.470318     0.007504
AU2039   AU        0.340104    0.398161    0.470022     0.007504
AU2040   AU        0.337441    0.429633    0.436622     0.007504
PD2041   PD        0.375163    0.398745    0.437047     0.005394
AU2042   AU        0.376928    0.431634    0.469504     0.007504
AU2043   AU        0.411715    0.396565    0.469590     0.007504
AU2044   AU        0.411247    0.430134    0.435624     0.007504
AU2045   AU        0.446727    0.396033    0.437861     0.007504
PD2046   PD        0.447318    0.429103    0.470724     0.005394
AU2047   AU        0.484559    0.398478    0.471820     0.007504
AU2048   AU        0.482720    0.431199    0.436398     0.007504
AU2049   AU        0.518465    0.398008    0.436149     0.007504
AU2050   AU        0.521420    0.429807    0.470176     0.007504
AU2051   AU        0.556507    0.397691    0.470331     0.007504
AU2052   AU        0.554717    0.430421    0.436482     0.007504
PD2053   PD        0.591820    0.398608    0.436655     0.005394
AU2054   AU        0.589816    0.432859    0.470148     0.007504
PD2055   PD        0.625982    0.398198    0.470042     0.005394
AU2056   AU        0.626415    0.429916    0.437755     0.007504
PD2057   PD        0.661001    0.398637    0.439091     0.005394
AU2058   AU        0.660693    0.433637    0.471188     0.007504
PD2059   PD        0.699278    0.394732    0.469103     0.005394
AU2060   AU        0.697839    0.429443    0.435491     0.007504
AU2061   AU        0.735177    0.396230    0.436047     0.007504
AU2062   AU        0.734346    0.431477    0.469382     0.007504
PD2063   PD        0.767422    0.398953    0.469984     0.005394
AU2064   AU        0.769282    0.430646    0.436430     0.007504
PD2065   PD        0.804368    0.396939    0.436339     0.005394
PD2066   PD        0.802611    0.430939    0.470355     0.005394
PD2067   PD        0.837868    0.398382    0.472746     0.005394
PD2068   PD        0.842066    0.427626    0.436497     0.005394
PD2069   PD        0.875238    0.396123    0.430931     0.005394
PD2070   PD        0.877021    0.426587    0.469529     0.005394
AU2071   AU        0.023002    0.465708    0.436327     0.007504
AU2072   AU        0.022868    0.496938    0.468134     0.007504
AU2073   AU        0.056849    0.465815    0.467610     0.007504
PD2074   PD        0.057632    0.497357    0.433888     0.005394
PD2075   PD        0.091212    0.463610    0.435429     0.005394
AU2076   AU        0.092245    0.496719    0.471143     0.007504
PD2077   PD        0.125531    0.463575    0.467958     0.005394
PD2078   PD        0.127012    0.497015    0.438725     0.005394
AU2079   AU        0.161684    0.462158    0.438065     0.007504
AU2080   AU        0.162890    0.496883    0.470610     0.007504
AU2081   AU        0.196938    0.463394    0.471484     0.007504
AU2082   AU        0.196758    0.496743    0.436331     0.007504
AU2083   AU        0.232939    0.464970    0.436478     0.007504
AU2084   AU        0.231460    0.498110    0.469304     0.007504
PD2085   PD        0.269482    0.462042    0.469473     0.005394
AU2086   AU        0.269698    0.497317    0.435441     0.007504
AU2087   AU        0.305579    0.464639    0.435367     0.007504
AU2088   AU        0.303773    0.495850    0.468556     0.007504
AU2089   AU        0.340284    0.463546    0.469602     0.007504
AU2090   AU        0.339149    0.497871    0.435958     0.007504
AU2091   AU        0.373978    0.464039    0.435889     0.007504
AU2092   AU        0.373899    0.496538    0.469566     0.007504
AU2093   AU        0.412149    0.464419    0.472381     0.007504
AU2094   AU        0.412826    0.497352    0.436768     0.007504
AU2095   AU        0.448419    0.463720    0.438023     0.007504
AU2096   AU        0.447327    0.497980    0.471713     0.007504
AU2097   AU        0.483184    0.464552    0.469116     0.007504
AU2098   AU        0.484530    0.498024    0.436765     0.007504
AU2099   AU        0.519528    0.462980    0.438261     0.007504
AU2100   AU        0.518614    0.498811    0.470802     0.007504
AU2101   AU        0.555477    0.465863    0.468763     0.007504
PD2102   PD        0.554162    0.497740    0.437745     0.005394
AU2103   AU        0.589384    0.465823    0.436684     0.007504
AU2104   AU        0.590256    0.500097    0.469431     0.007504
PD2105   PD        0.624431    0.467234    0.472328     0.005394
PD2106   PD        0.625428    0.499722    0.437102     0.005394
AU2107   AU        0.660294    0.464060    0.437700     0.007504
AU2108   AU        0.663217    0.498507    0.470625     0.007504
PD2109   PD        0.698878    0.464582    0.470238     0.005394
AU2110   AU        0.696269    0.498982    0.436409     0.007504
AU2111   AU        0.733288    0.464423    0.437311     0.007504
PD2112   PD        0.731698    0.499405    0.469362     0.005394
PD2113   PD        0.769529    0.465667    0.467673     0.005394
PD2114   PD        0.766166    0.501161    0.436708     0.005394
PD2115   PD        0.803574    0.464112    0.434317     0.005394
PD2116   PD        0.801439    0.498267    0.468040     0.005394
PD2117   PD        0.840027    0.460816    0.467925     0.005394
AU2118   AU        0.839321    0.497373    0.436459     0.007504
PD2119   PD        0.908575    0.462099    0.467783     0.005394
PD2120   PD        0.871173    0.496459    0.468765     0.005394
PD2121   PD        0.021611    0.530622    0.434585     0.005394
PD2122   PD        0.057200    0.527695    0.469150     0.005394
PD2123   PD        0.054780    0.566567    0.436093     0.005394
PD2124   PD        0.093710    0.531228    0.438669     0.005394
PD2125   PD        0.093528    0.563869    0.470301     0.005394
AU2126   AU        0.127447    0.532357    0.467289     0.007504
AU2127   AU        0.128288    0.564359    0.435808     0.007504
AU2128   AU        0.163267    0.531169    0.436281     0.007504
PD2129   PD        0.164566    0.564084    0.467837     0.005394
AU2130   AU        0.198281    0.531097    0.470653     0.007504
AU2131   AU        0.198257    0.562293    0.436255     0.007504
AU2132   AU        0.232487    0.530499    0.436936     0.007504
AU2133   AU        0.234075    0.565670    0.471630     0.007504
AU2134   AU        0.266624    0.532344    0.468458     0.007504
AU2135   AU        0.268403    0.565155    0.436192     0.007504
AU2136   AU        0.303921    0.530831    0.438213     0.007504
AU2137   AU        0.303368    0.563289    0.469840     0.007504
AU2138   AU        0.340055    0.529275    0.468771     0.007504
AU2139   AU        0.339713    0.565973    0.435202     0.007504
PD2140   PD        0.375936    0.531162    0.436733     0.005394
AU2141   AU        0.378144    0.563986    0.471825     0.007504
AU2142   AU        0.410934    0.528046    0.471108     0.007504
AU2143   AU        0.409898    0.563229    0.436063     0.007504
AU2144   AU        0.448629    0.531040    0.436608     0.007504
AU2145   AU        0.446454    0.565024    0.469141     0.007504
PD2146   PD        0.482196    0.534263    0.470553     0.005394
AU2147   AU        0.484579    0.564320    0.435967     0.007504
AU2148   AU        0.520412    0.532978    0.435287     0.007504
AU2149   AU        0.521006    0.565523    0.469082     0.007504
PD2150   PD        0.554433    0.531042    0.470475     0.005394
AU2151   AU        0.556106    0.564504    0.436215     0.007504
AU2152   AU        0.589287    0.531067    0.437354     0.007504
AU2153   AU        0.590521    0.562956    0.468898     0.007504
AU2154   AU        0.626144    0.532195    0.466636     0.007504
AU2155   AU        0.626153    0.565668    0.437322     0.007504
AU2156   AU        0.662420    0.533089    0.435387     0.007504
AU2157   AU        0.660319    0.565589    0.470480     0.007504
PD2158   PD        0.696713    0.531991    0.468729     0.005394
AU2159   AU        0.698591    0.564217    0.437726     0.007504
PD2160   PD        0.732969    0.531231    0.438281     0.005394
PD2161   PD        0.733421    0.565026    0.470962     0.005394
AU2162   AU        0.768361    0.533699    0.468832     0.007504
PD2163   PD        0.770432    0.564360    0.437340     0.005394
AU2164   AU        0.803602    0.531840    0.437100     0.007504
AU2165   AU        0.804790    0.565440    0.469521     0.007504
PD2166   PD        0.837687    0.532835    0.469537     0.005394
AU2167   AU        0.838608    0.564548    0.434692     0.007504
PD2168   PD        0.873738    0.529894    0.432339     0.005394
PD2169   PD        0.055020    0.596739    0.468711     0.005394
AU2170   AU        0.055581    0.631048    0.435271     0.007504
AU2171   AU        0.091565    0.597095    0.435765     0.007504
AU2172   AU        0.092272    0.627801    0.467022     0.007504
AU2173   AU        0.128348    0.596652    0.468105     0.007504
AU2174   AU        0.126215    0.631945    0.434887     0.007504
AU2175   AU        0.163192    0.598830    0.436158     0.007504
AU2176   AU        0.162397    0.629830    0.469789     0.007504
AU2177   AU        0.199465    0.598604    0.469549     0.007504
AU2178   AU        0.198764    0.631349    0.435934     0.007504
AU2179   AU        0.232859    0.597823    0.436917     0.007504
AU2180   AU        0.235428    0.631051    0.469986     0.007504
AU2181   AU        0.269069    0.597709    0.468312     0.007504
AU2182   AU        0.269238    0.630810    0.436508     0.007504
PD2183   PD        0.302219    0.596924    0.435006     0.005394
PD2184   PD        0.304926    0.630457    0.469662     0.005394
AU2185   AU        0.339965    0.598693    0.470652     0.007504
PD2186   PD        0.340054    0.629735    0.434553     0.005394
AU2187   AU        0.375224    0.598193    0.438504     0.007504
AU2188   AU        0.374562    0.629801    0.471898     0.007504
AU2189   AU        0.411352    0.597074    0.470737     0.007504
PD2190   PD        0.413023    0.631316    0.436481     0.005394
AU2191   AU        0.448009    0.597264    0.435943     0.007504
AU2192   AU        0.448115    0.627513    0.468161     0.007504
AU2193   AU        0.484479    0.598739    0.470997     0.007504
AU2194   AU        0.485534    0.632093    0.437766     0.007504
AU2195   AU        0.522613    0.599007    0.437430     0.007504
AU2196   AU        0.520777    0.631681    0.470443     0.007504
AU2197   AU        0.557565    0.599309    0.470395     0.007504
PD2198   PD        0.558206    0.631324    0.436096     0.005394
PD2199   PD        0.590992    0.599820    0.433528     0.005394
AU2200   AU        0.592694    0.631668    0.468574     0.007504
AU2201   AU        0.626554    0.597884    0.469032     0.007504
AU2202   AU        0.630255    0.630977    0.435455     0.007504
AU2203   AU        0.661705    0.597584    0.436503     0.007504
AU2204   AU        0.660685    0.629959    0.469863     0.007504
AU2205   AU        0.696759    0.597996    0.470335     0.007504
PD2206   PD        0.697155    0.631967    0.436842     0.005394
AU2207   AU        0.732994    0.597680    0.436920     0.007504
AU2208   AU        0.732391    0.631074    0.466509     0.007504
PD2209   PD        0.767420    0.597397    0.467662     0.005394
AU2210   AU        0.767938    0.630447    0.435610     0.007504
AU2211   AU        0.802936    0.596638    0.436319     0.007504
AU2212   AU        0.802104    0.631665    0.467951     0.007504
AU2213   AU        0.839892    0.597553    0.467400     0.007504
PD2214   PD        0.839250    0.630924    0.436615     0.005394
PD2215   PD        0.091866    0.663710    0.435019     0.005394
PD2216   PD        0.090528    0.690082    0.470672     0.005394
PD2217   PD        0.125562    0.663140    0.469530     0.005394
PD2218   PD        0.124284    0.697510    0.436338     0.005394
AU2219   AU        0.160811    0.662697    0.436905     0.007504
AU2220   AU        0.160563    0.696163    0.468512     0.007504
AU2221   AU        0.199204    0.662702    0.470161     0.007504
AU2222   AU        0.197950    0.696579    0.438874     0.007504
AU2223   AU        0.234933    0.662172    0.435200     0.007504
PD2224   PD        0.232843    0.695282    0.470065     0.005394
AU2225   AU        0.268597    0.664537    0.470625     0.007504
PD2226   PD        0.266411    0.698341    0.435900     0.005394
AU2227   AU        0.302950    0.664106    0.436080     0.007504
AU2228   AU        0.302547    0.696978    0.469251     0.007504
PD2229   PD        0.341170    0.663495    0.467956     0.005394
PD2230   PD        0.340293    0.697531    0.436413     0.005394
PD2231   PD        0.377640    0.661407    0.436402     0.005394
PD2232   PD        0.374660    0.699245    0.465993     0.005394
PD2233   PD        0.410245    0.661047    0.471671     0.005394
PD2234   PD        0.411850    0.695554    0.435915     0.005394
PD2235   PD        0.446302    0.664356    0.438171     0.005394
PD2236   PD        0.446685    0.696761    0.471245     0.005394
PD2237   PD        0.482774    0.662193    0.470117     0.005394
AU2238   AU        0.483366    0.696190    0.437946     0.007504
PD2239   PD        0.519962    0.666457    0.434231     0.005394
PD2240   PD        0.521497    0.698273    0.469733     0.005394
PD2241   PD        0.557464    0.664420    0.467632     0.005394
PD2242   PD        0.554458    0.696710    0.433397     0.005394
AU2243   AU        0.592447    0.664025    0.434306     0.007504
PD2244   PD        0.587572    0.697601    0.468608     0.005394
PD2245   PD        0.625202    0.665231    0.469538     0.005394
PD2246   PD        0.623787    0.697179    0.438756     0.005394
PD2247   PD        0.661713    0.667089    0.435518     0.005394
AU2248   AU        0.662371    0.698179    0.469691     0.007504
AU2249   AU        0.698831    0.663739    0.468406     0.007504
AU2250   AU        0.699626    0.697164    0.433797     0.007504
PD2251   PD        0.735295    0.663721    0.435661     0.005394
PD2252   PD        0.734639    0.695818    0.467565     0.005394
AU2253   AU        0.768413    0.664357    0.466461     0.007504
PD2254   PD        0.766177    0.697451    0.432867     0.005394
PD2255   PD        0.804597    0.661637    0.433769     0.005394
PD2256   PD        0.804786    0.698603    0.462065     0.005394
PD2257   PD        0.129293    0.766248    0.436539     0.005394
AU2258   AU        0.163170    0.730171    0.437254     0.007504
PD2259   PD        0.165767    0.764746    0.466438     0.005394
PD2260   PD        0.198170    0.730628    0.469181     0.005394
PD2261   PD        0.200956    0.761523    0.434130     0.005394
PD2262   PD        0.235063    0.726736    0.437553     0.005394
PD2263   PD        0.236133    0.762882    0.468292     0.005394
PD2264   PD        0.268598    0.730902    0.467992     0.005394
PD2265   PD        0.266679    0.760021    0.436234     0.005394
PD2266   PD        0.307358    0.731434    0.435117     0.005394
PD2267   PD        0.305494    0.763107    0.468758     0.005394
PD2268   PD        0.338046    0.727549    0.468468     0.005394
PD2269   PD        0.341547    0.762420    0.433735     0.005394
AU2270   AU        0.375982    0.730311    0.433714     0.007504
PD2271   PD        0.375462    0.762192    0.468523     0.005394
PD2272   PD        0.415215    0.732752    0.469782     0.005394
PD2273   PD        0.414652    0.761673    0.434645     0.005394
PD2274   PD        0.450280    0.731042    0.433382     0.005394
PD2275   PD        0.450053    0.764447    0.469523     0.005394
PD2276   PD        0.482655    0.730852    0.467229     0.005394
PD2277   PD        0.487759    0.764509    0.435448     0.005394
AU2278   AU        0.518996    0.729468    0.436018     0.007504
AU2279   AU        0.522098    0.763008    0.468164     0.007504
PD2280   PD        0.557221    0.730396    0.468611     0.005394
AU2281   AU        0.556709    0.763236    0.434517     0.007504
AU2282   AU        0.588767    0.730367    0.434082     0.007504
AU2283   AU        0.590876    0.761695    0.467814     0.007504
AU2284   AU        0.626006    0.729324    0.469075     0.007504
AU2285   AU        0.628362    0.764062    0.435736     0.007504
PD2286   PD        0.665044    0.727904    0.434833     0.005394
AU2287   AU        0.661755    0.762026    0.467840     0.007504
AU2288   AU        0.697648    0.730992    0.470276     0.007504
PD2289   PD        0.698335    0.760016    0.433663     0.005394
PD2290   PD        0.733141    0.731333    0.435774     0.005394
PD2291   PD        0.736916    0.761286    0.470512     0.005394
PD2292   PD        0.768767    0.727713    0.468146     0.005394
AU2293   AU        0.200989    0.798055    0.468715     0.007504
AU2294   AU        0.235643    0.796672    0.436401     0.007504
AU2295   AU        0.270309    0.796537    0.466471     0.007504
PD2296   PD        0.268032    0.831896    0.435428     0.005394
PD2297   PD        0.304848    0.795557    0.437524     0.005394
AU2298   AU        0.304470    0.829040    0.466479     0.007504
AU2299   AU        0.340641    0.795494    0.468326     0.007504
PD2300   PD        0.340277    0.827913    0.434796     0.005394
PD2301   PD        0.373428    0.796045    0.434064     0.005394
PD2302   PD        0.378969    0.830090    0.465508     0.005394
AU2303   AU        0.412488    0.794346    0.468017     0.007504
AU2304   AU        0.411605    0.826697    0.433644     0.007504
PD2305   PD        0.449411    0.796007    0.433879     0.005394
AU2306   AU        0.450237    0.828182    0.465389     0.007504
AU2307   AU        0.487639    0.796956    0.467069     0.007504
AU2308   AU        0.484721    0.828499    0.433582     0.007504
AU2309   AU        0.523473    0.796853    0.435452     0.007504
AU2310   AU        0.520727    0.830090    0.464994     0.007504
AU2311   AU        0.557676    0.797057    0.469618     0.007504
PD2312   PD        0.557678    0.831017    0.434796     0.005394
PD2313   PD        0.591031    0.797166    0.433499     0.005394
PD2314   PD        0.590093    0.863206    0.434454     0.005394
PD2315   PD        0.626133    0.796129    0.468780     0.005394
AU2316   AU        0.626670    0.828170    0.436502     0.007504
AU2317   AU        0.665498    0.794977    0.433825     0.007504
PD2318   PD        0.691103    0.834542    0.505325     0.005394
PD2319   PD        0.375650    0.861726    0.432519     0.005394
AU2320   AU        0.414858    0.862361    0.461492     0.007504
PD2321   PD        0.448280    0.859085    0.432499     0.005394
PD2322   PD        0.441449    0.885021    0.488702     0.005394
PD2323   PD        0.522271    0.863161    0.434880     0.005394
PD2324   PD        0.267951    0.097104    0.500048     0.005394
AU2325   AU        0.303608    0.097499    0.538192     0.007504
AU2326   AU        0.340488    0.100055    0.501493     0.007504
PD2327   PD        0.380218    0.000667    0.587236     0.005394
AU2328   AU        0.409345    0.097999    0.503968     0.007504
AU2329   AU        0.447805    0.068796    0.500334     0.007504
AU2330   AU        0.447464    0.098405    0.536309     0.007504
PD2331   PD        0.479744    0.100399    0.501136     0.005394
PD2332   PD        0.513186    0.098142    0.533902     0.005394
PD2333   PD        0.552866    0.100330    0.505337     0.005394
PD2334   PD        0.590232    0.095500    0.533911     0.005394
PD2335   PD        0.623892    0.095949    0.500479     0.005394
PD2336   PD        0.197205    0.166011    0.503297     0.005394
PD2337   PD        0.234076    0.131216    0.506572     0.005394
AU2338   AU        0.231582    0.166131    0.535701     0.007504
PD2339   PD        0.269478    0.130567    0.538338     0.005394
PD2340   PD        0.270200    0.166155    0.505593     0.005394
AU2341   AU        0.301694    0.131678    0.504428     0.007504
AU2342   AU        0.302994    0.165144    0.538341     0.007504
AU2343   AU        0.337783    0.132719    0.536178     0.007504
PD2344   PD        0.335745    0.164496    0.503105     0.005394
PD2345   PD        0.374613    0.133139    0.505605     0.005394
PD2346   PD        0.373512    0.164438    0.538148     0.005394
PD2347   PD        0.411883    0.131127    0.537238     0.005394
PD2348   PD        0.410090    0.164835    0.504616     0.005394
PD2349   PD        0.448524    0.132479    0.503812     0.005394
AU2350   AU        0.444874    0.165746    0.534870     0.007504
PD2351   PD        0.478997    0.131700    0.536113     0.005394
PD2352   PD        0.484565    0.166153    0.503892     0.005394
PD2353   PD        0.518299    0.131659    0.501569     0.005394
PD2354   PD        0.518645    0.165589    0.534795     0.005394
AU2355   AU        0.550997    0.133862    0.534972     0.007504
PD2356   PD        0.554717    0.166310    0.500105     0.005394
PD2357   PD        0.588205    0.132616    0.503388     0.005394
AU2358   AU        0.588640    0.166020    0.535175     0.007504
AU2359   AU        0.622360    0.131596    0.535436     0.007504
PD2360   PD        0.624471    0.163996    0.505069     0.005394
PD2361   PD        0.656989    0.130336    0.500473     0.005394
AU2362   AU        0.657361    0.163606    0.536346     0.007504
PD2363   PD        0.694949    0.161600    0.503210     0.005394
AU2364   AU        0.127674    0.230988    0.500942     0.007504
PD2365   PD        0.162114    0.198268    0.503225     0.005394
AU2366   AU        0.162755    0.232590    0.538870     0.007504
AU2367   AU        0.197283    0.197493    0.536334     0.007504
AU2368   AU        0.195830    0.230505    0.504433     0.007504
AU2369   AU        0.234203    0.200423    0.503354     0.007504
AU2370   AU        0.230217    0.231825    0.538375     0.007504
PD2371   PD        0.269467    0.199024    0.536523     0.005394
PD2372   PD        0.268196    0.232052    0.501502     0.005394
PD2373   PD        0.301873    0.199047    0.505070     0.005394
AU2374   AU        0.302246    0.232528    0.535817     0.007504
PD2375   PD        0.338868    0.197945    0.536130     0.005394
AU2376   AU        0.336292    0.231667    0.501780     0.007504
AU2377   AU        0.374698    0.198796    0.503898     0.007504
PD2378   PD        0.375004    0.229690    0.536843     0.005394
AU2379   AU        0.408669    0.197367    0.536522     0.007504
PD2380   PD        0.408233    0.231876    0.503372     0.005394
AU2381   AU        0.447852    0.198107    0.504695     0.007504
AU2382   AU        0.445742    0.230907    0.536018     0.007504
AU2383   AU        0.482492    0.199435    0.538543     0.007504
AU2384   AU        0.481474    0.229419    0.503501     0.007504
AU2385   AU        0.515868    0.199146    0.504299     0.007504
AU2386   AU        0.517819    0.231780    0.535622     0.007504
AU2387   AU        0.555887    0.197498    0.535807     0.007504
AU2388   AU        0.553139    0.231629    0.502931     0.007504
PD2389   PD        0.589129    0.196924    0.501606     0.005394
AU2390   AU        0.588889    0.229311    0.535664     0.007504
PD2391   PD        0.624822    0.196809    0.534737     0.005394
PD2392   PD        0.624560    0.229147    0.504591     0.005394
AU2393   AU        0.660452    0.197216    0.502389     0.007504
AU2394   AU        0.661046    0.230490    0.536465     0.007504
AU2395   AU        0.695084    0.195077    0.534706     0.007504
AU2396   AU        0.695939    0.231145    0.503599     0.007504
AU2397   AU        0.728907    0.195684    0.504033     0.007504
AU2398   AU        0.730177    0.228623    0.535008     0.007504
AU2399   AU        0.767883    0.231202    0.502454     0.007504
AU2400   AU        0.055513    0.298965    0.501831     0.007504
PD2401   PD        0.092840    0.263134    0.505814     0.005394
PD2402   PD        0.091580    0.299771    0.534766     0.005394
PD2403   PD        0.127326    0.266627    0.537031     0.005394
PD2404   PD        0.128115    0.299436    0.503591     0.005394
PD2405   PD        0.159181    0.266491    0.502994     0.005394
PD2406   PD        0.161161    0.300277    0.537493     0.005394
AU2407   AU        0.197431    0.264458    0.536656     0.007504
AU2408   AU        0.196600    0.298050    0.503022     0.007504
AU2409   AU        0.230669    0.264918    0.503469     0.007504
AU2410   AU        0.230504    0.298074    0.535469     0.007504
AU2411   AU        0.265529    0.264233    0.536812     0.007504
PD2412   PD        0.267480    0.299046    0.503112     0.005394
AU2413   AU        0.302108    0.267114    0.501080     0.007504
AU2414   AU        0.303365    0.296959    0.535444     0.007504
AU2415   AU        0.339032    0.265272    0.535523     0.007504
PD2416   PD        0.338080    0.296320    0.501855     0.005394
AU2417   AU        0.375132    0.264261    0.503757     0.007504
AU2418   AU        0.375959    0.298637    0.535035     0.007504
AU2419   AU        0.412193    0.263279    0.534395     0.007504
AU2420   AU        0.411681    0.297776    0.502422     0.007504
AU2421   AU        0.448508    0.263726    0.502419     0.007504
AU2422   AU        0.445786    0.299232    0.534636     0.007504
AU2423   AU        0.482141    0.264574    0.536893     0.007504
AU2424   AU        0.481315    0.296492    0.503812     0.007504
AU2425   AU        0.519656    0.262826    0.503008     0.007504
AU2426   AU        0.520454    0.295795    0.535698     0.007504
AU2427   AU        0.553718    0.262118    0.537556     0.007504
PD2428   PD        0.553593    0.296177    0.502485     0.005394
AU2429   AU        0.588468    0.265039    0.503887     0.007504
AU2430   AU        0.590813    0.295622    0.537399     0.007504
PD2431   PD        0.627374    0.262730    0.537477     0.005394
PD2432   PD        0.628057    0.296466    0.503301     0.005394
AU2433   AU        0.659516    0.263014    0.503753     0.007504
PD2434   PD        0.663935    0.295558    0.537113     0.005394
AU2435   AU        0.696705    0.263732    0.535363     0.007504
AU2436   AU        0.694623    0.295062    0.502446     0.007504
AU2437   AU        0.731908    0.261871    0.502599     0.007504
AU2438   AU        0.732445    0.295912    0.535798     0.007504
AU2439   AU        0.766156    0.263112    0.534505     0.007504
AU2440   AU        0.766660    0.295853    0.500969     0.007504
AU2441   AU        0.803922    0.262613    0.504332     0.007504
AU2442   AU        0.802319    0.297796    0.533360     0.007504
PD2443   PD        0.837237    0.294477    0.503729     0.005394
PD2444   PD        0.056451    0.331446    0.535786     0.005394
AU2445   AU        0.056518    0.364097    0.503791     0.007504
AU2446   AU        0.091090    0.333232    0.502953     0.007504
AU2447   AU        0.092326    0.363480    0.535870     0.007504
PD2448   PD        0.126903    0.331294    0.535839     0.005394
AU2449   AU        0.127371    0.363851    0.504118     0.007504
PD2450   PD        0.163160    0.334023    0.503784     0.005394
PD2451   PD        0.160823    0.364538    0.537986     0.005394
PD2452   PD        0.196931    0.331195    0.534978     0.005394
PD2453   PD        0.200291    0.366515    0.502678     0.005394
AU2454   AU        0.232319    0.331388    0.501535     0.007504
AU2455   AU        0.234468    0.364506    0.536413     0.007504
AU2456   AU        0.267659    0.329677    0.536924     0.007504
AU2457   AU        0.267797    0.365063    0.503888     0.007504
AU2458   AU        0.302700    0.330590    0.503318     0.007504
AU2459   AU        0.305115    0.363112    0.536751     0.007504
AU2460   AU        0.339422    0.332144    0.536372     0.007504
AU2461   AU        0.338261    0.362764    0.504433     0.007504
AU2462   AU        0.375185    0.330345    0.503961     0.007504
AU2463   AU        0.375773    0.364222    0.537668     0.007504
AU2464   AU        0.409030    0.330965    0.538207     0.007504
AU2465   AU        0.409153    0.363118    0.504347     0.007504
AU2466   AU        0.446065    0.331558    0.504724     0.007504
AU2467   AU        0.444725    0.363753    0.537243     0.007504
AU2468   AU        0.482553    0.329011    0.535137     0.007504
AU2469   AU        0.481408    0.363182    0.505479     0.007504
AU2470   AU        0.520924    0.331110    0.503718     0.007504
AU2471   AU        0.519207    0.362209    0.536524     0.007504
AU2472   AU        0.555803    0.329429    0.537615     0.007504
AU2473   AU        0.555091    0.364311    0.504294     0.007504
AU2474   AU        0.589742    0.329140    0.503328     0.007504
AU2475   AU        0.588436    0.365113    0.539088     0.007504
PD2476   PD        0.624876    0.328390    0.535979     0.005394
PD2477   PD        0.625061    0.363732    0.502842     0.005394
AU2478   AU        0.660110    0.330019    0.502562     0.007504
PD2479   PD        0.661398    0.363774    0.535209     0.005394
PD2480   PD        0.698051    0.330186    0.537285     0.005394
PD2481   PD        0.699511    0.362934    0.505643     0.005394
PD2482   PD        0.731374    0.330530    0.501426     0.005394
PD2483   PD        0.733175    0.357608    0.537228     0.005394
PD2484   PD        0.767629    0.327778    0.534067     0.005394
AU2485   AU        0.767712    0.361765    0.504635     0.007504
AU2486   AU        0.801960    0.330947    0.502184     0.007504
PD2487   PD        0.800060    0.360717    0.537416     0.005394
PD2488   PD        0.839824    0.330388    0.536030     0.005394
PD2489   PD        0.836954    0.364418    0.503997     0.005394
AU2490   AU        0.057513    0.399179    0.534272     0.007504
AU2491   AU        0.057827    0.431711    0.504305     0.007504
PD2492   PD        0.091211    0.396770    0.503430     0.005394
AU2493   AU        0.093369    0.431043    0.535615     0.007504
AU2494   AU        0.125314    0.397843    0.536034     0.007504
PD2495   PD        0.128040    0.430251    0.504175     0.005394
AU2496   AU        0.163923    0.394989    0.503380     0.007504
AU2497   AU        0.163164    0.428800    0.536458     0.007504
PD2498   PD        0.198399    0.394782    0.537636     0.005394
AU2499   AU        0.198166    0.431099    0.504072     0.007504
PD2500   PD        0.235092    0.398003    0.503008     0.005394
PD2501   PD        0.229800    0.429992    0.538276     0.005394
PD2502   PD        0.270507    0.397314    0.536404     0.005394
PD2503   PD        0.270294    0.428884    0.505072     0.005394
AU2504   AU        0.306103    0.397589    0.502373     0.007504
AU2505   AU        0.306228    0.429528    0.537689     0.007504
AU2506   AU        0.340788    0.395554    0.537458     0.007504
AU2507   AU        0.340651    0.430915    0.503269     0.007504
AU2508   AU        0.374312    0.396317    0.503703     0.007504
AU2509   AU        0.375284    0.429313    0.535851     0.007504
AU2510   AU        0.409998    0.397053    0.534977     0.007504
AU2511   AU        0.410403    0.433254    0.503213     0.007504
PD2512   PD        0.445471    0.396897    0.503198     0.005394
AU2513   AU        0.444299    0.430236    0.537162     0.007504
AU2514   AU        0.481910    0.397703    0.538257     0.007504
AU2515   AU        0.481517    0.431460    0.502582     0.007504
PD2516   PD        0.517223    0.397743    0.502590     0.005394
AU2517   AU        0.518228    0.429210    0.535231     0.007504
PD2518   PD        0.552797    0.398409    0.533329     0.005394
PD2519   PD        0.554342    0.433007    0.503432     0.005394
PD2520   PD        0.591128    0.397830    0.503984     0.005394
AU2521   AU        0.588060    0.431442    0.536793     0.007504
PD2522   PD        0.626761    0.396950    0.536327     0.005394
AU2523   AU        0.622895    0.433384    0.503167     0.007504
AU2524   AU        0.663679    0.397323    0.503229     0.007504
PD2525   PD        0.660700    0.431430    0.537316     0.005394
PD2526   PD        0.697922    0.395462    0.536821     0.005394
AU2527   AU        0.696336    0.430797    0.500559     0.007504
AU2528   AU        0.733611    0.396688    0.503531     0.007504
PD2529   PD        0.733139    0.429664    0.533400     0.005394
AU2530   AU        0.767502    0.395675    0.535782     0.007504
PD2531   PD        0.770258    0.429809    0.500449     0.005394
AU2532   AU        0.802487    0.395255    0.503902     0.007504
PD2533   PD        0.806114    0.426199    0.537163     0.005394
PD2534   PD        0.871739    0.396024    0.574446     0.005394
PD2535   PD        0.841131    0.432383    0.501972     0.005394
PD2536   PD        0.021438    0.465487    0.501985     0.005394
AU2537   AU        0.055083    0.464760    0.536076     0.007504
PD2538   PD        0.055823    0.499052    0.503853     0.005394
PD2539   PD        0.092546    0.465452    0.503450     0.005394
PD2540   PD        0.090957    0.496122    0.537340     0.005394
PD2541   PD        0.127950    0.464990    0.537416     0.005394
PD2542   PD        0.126070    0.497199    0.505752     0.005394
PD2543   PD        0.160322    0.464526    0.503640     0.005394
PD2544   PD        0.162541    0.500490    0.536419     0.005394
PD2545   PD        0.195226    0.465245    0.536105     0.005394
AU2546   AU        0.197710    0.497027    0.504589     0.007504
AU2547   AU        0.234355    0.464556    0.502728     0.007504
AU2548   AU        0.235901    0.497606    0.536832     0.007504
PD2549   PD        0.269519    0.464489    0.536538     0.005394
PD2550   PD        0.269984    0.498612    0.503915     0.005394
PD2551   PD        0.307399    0.463010    0.505920     0.005394
AU2552   AU        0.303706    0.496481    0.538366     0.007504
AU2553   AU        0.340603    0.464718    0.537100     0.007504
AU2554   AU        0.339514    0.498226    0.503262     0.007504
AU2555   AU        0.373777    0.464462    0.502989     0.007504
PD2556   PD        0.376204    0.497605    0.535884     0.005394
AU2557   AU        0.409520    0.464215    0.537197     0.007504
AU2558   AU        0.410616    0.495820    0.504742     0.007504
AU2559   AU        0.446828    0.463642    0.504747     0.007504
AU2560   AU        0.446491    0.497640    0.537411     0.007504
AU2561   AU        0.482436    0.462986    0.536379     0.007504
AU2562   AU        0.483117    0.498241    0.502853     0.007504
PD2563   PD        0.518490    0.465524    0.502838     0.005394
AU2564   AU        0.518090    0.498172    0.537744     0.007504
AU2565   AU        0.553916    0.466192    0.536002     0.007504
AU2566   AU        0.552868    0.500593    0.503964     0.007504
AU2567   AU        0.589121    0.467070    0.502978     0.007504
AU2568   AU        0.589177    0.497095    0.537289     0.007504
AU2569   AU        0.626689    0.465867    0.536693     0.007504
AU2570   AU        0.625995    0.498753    0.503126     0.007504
PD2571   PD        0.660852    0.466868    0.501461     0.005394
AU2572   AU        0.662394    0.495242    0.536993     0.007504
AU2573   AU        0.697514    0.463780    0.535830     0.007504
PD2574   PD        0.697511    0.497332    0.503754     0.005394
AU2575   AU        0.732607    0.464104    0.501611     0.007504
PD2576   PD        0.731202    0.496278    0.535175     0.005394
PD2577   PD        0.770715    0.462808    0.531406     0.005394
AU2578   AU        0.765971    0.500393    0.501016     0.007504
PD2579   PD        0.805082    0.466138    0.498911     0.005394
AU2580   AU        0.801673    0.498071    0.535577     0.007504
PD2581   PD        0.836717    0.465908    0.533571     0.005394
PD2582   PD        0.837413    0.500222    0.500642     0.005394
PD2583   PD        0.910258    0.507033    0.534797     0.005394
PD2584   PD        0.058718    0.531241    0.535905     0.005394
AU2585   AU        0.056656    0.561313    0.499666     0.007504
PD2586   PD        0.092266    0.531643    0.502641     0.005394
AU2587   AU        0.091871    0.563302    0.533905     0.007504
PD2588   PD        0.125381    0.529956    0.536698     0.005394
AU2589   AU        0.129715    0.563078    0.502451     0.007504
PD2590   PD        0.165420    0.529646    0.505845     0.005394
PD2591   PD        0.162076    0.561474    0.536393     0.005394
PD2592   PD        0.199743    0.532397    0.536185     0.005394
PD2593   PD        0.197966    0.567711    0.502852     0.005394
PD2594   PD        0.233583    0.531142    0.501271     0.005394
AU2595   AU        0.232677    0.563974    0.537651     0.007504
AU2596   AU        0.268446    0.530350    0.537801     0.007504
AU2597   AU        0.267294    0.563466    0.503369     0.007504
PD2598   PD        0.305936    0.531540    0.502363     0.005394
AU2599   AU        0.304616    0.564235    0.533787     0.007504
AU2600   AU        0.340517    0.532224    0.536741     0.007504
AU2601   AU        0.339835    0.564040    0.501823     0.007504
AU2602   AU        0.374991    0.531045    0.504223     0.007504
AU2603   AU        0.376501    0.564215    0.535141     0.007504
AU2604   AU        0.411952    0.529798    0.536144     0.007504
AU2605   AU        0.412149    0.562986    0.502945     0.007504
AU2606   AU        0.447325    0.529913    0.505091     0.007504
AU2607   AU        0.447760    0.566429    0.536729     0.007504
AU2608   AU        0.482934    0.533346    0.537429     0.007504
PD2609   PD        0.483780    0.563807    0.502159     0.005394
AU2610   AU        0.516817    0.531885    0.504544     0.007504
PD2611   PD        0.520863    0.567714    0.537840     0.005394
AU2612   AU        0.553634    0.531041    0.536096     0.007504
AU2613   AU        0.555719    0.564253    0.501976     0.007504
AU2614   AU        0.590812    0.531963    0.503976     0.007504
AU2615   AU        0.590939    0.565001    0.535928     0.007504
PD2616   PD        0.627059    0.532748    0.534739     0.005394
AU2617   AU        0.627364    0.564310    0.502020     0.007504
AU2618   AU        0.663868    0.530541    0.503598     0.007504
AU2619   AU        0.663662    0.565503    0.536310     0.007504
PD2620   PD        0.697540    0.532415    0.537223     0.005394
AU2621   AU        0.698686    0.565963    0.501138     0.007504
AU2622   AU        0.731860    0.531765    0.502067     0.007504
AU2623   AU        0.734149    0.564969    0.534773     0.007504
AU2624   AU        0.765648    0.531196    0.535716     0.007504
AU2625   AU        0.767884    0.565755    0.502240     0.007504
AU2626   AU        0.801922    0.530172    0.501808     0.007504
AU2627   AU        0.802733    0.562692    0.536117     0.007504
PD2628   PD        0.837100    0.530910    0.532219     0.005394
PD2629   PD        0.877411    0.560862    0.466225     0.005394
PD2630   PD        0.024944    0.561104    0.533942     0.005394
PD2631   PD        0.032538    0.617693    0.518590     0.005394
AU2632   AU        0.092572    0.595299    0.501757     0.007504
PD2633   PD        0.093130    0.628536    0.536689     0.005394
PD2634   PD        0.128835    0.595397    0.534118     0.005394
PD2635   PD        0.124896    0.629623    0.504420     0.005394
PD2636   PD        0.162814    0.598243    0.501720     0.005394
AU2637   AU        0.161577    0.629332    0.536891     0.007504
PD2638   PD        0.195171    0.597608    0.536934     0.005394
PD2639   PD        0.197505    0.632217    0.503222     0.005394
PD2640   PD        0.233130    0.599899    0.506040     0.005394
PD2641   PD        0.232603    0.630955    0.531845     0.005394
AU2642   AU        0.271792    0.597294    0.536614     0.007504
AU2643   AU        0.270843    0.629903    0.505584     0.007504
AU2644   AU        0.304270    0.596923    0.501476     0.007504
AU2645   AU        0.305425    0.630916    0.538626     0.007504
AU2646   AU        0.338815    0.596256    0.537303     0.007504
AU2647   AU        0.339743    0.628869    0.505053     0.007504
AU2648   AU        0.375165    0.596609    0.503879     0.007504
PD2649   PD        0.376596    0.631086    0.536376     0.005394
AU2650   AU        0.412437    0.598064    0.535577     0.007504
AU2651   AU        0.408539    0.628841    0.504034     0.007504
AU2652   AU        0.447355    0.596777    0.503167     0.007504
PD2653   PD        0.445573    0.632763    0.537208     0.005394
AU2654   AU        0.483362    0.597837    0.535457     0.007504
AU2655   AU        0.483188    0.630643    0.503587     0.007504
PD2656   PD        0.520138    0.598689    0.499714     0.005394
AU2657   AU        0.520569    0.630543    0.535531     0.007504
AU2658   AU        0.555977    0.597808    0.534208     0.007504
AU2659   AU        0.556147    0.630585    0.501941     0.007504
AU2660   AU        0.591017    0.597322    0.501431     0.007504
PD2661   PD        0.590252    0.629340    0.536823     0.005394
AU2662   AU        0.626848    0.598233    0.533940     0.007504
PD2663   PD        0.625472    0.630594    0.499814     0.005394
AU2664   AU        0.662343    0.598833    0.504604     0.007504
AU2665   AU        0.664355    0.631820    0.535249     0.007504
PD2666   PD        0.696935    0.597339    0.535512     0.005394
AU2667   AU        0.700393    0.629931    0.502373     0.007504
PD2668   PD        0.733893    0.599346    0.503538     0.005394
AU2669   AU        0.733509    0.631270    0.535646     0.007504
AU2670   AU        0.770428    0.597894    0.537086     0.007504
AU2671   AU        0.767944    0.630207    0.502602     0.007504
AU2672   AU        0.804626    0.598746    0.501782     0.007504
PD2673   PD        0.803116    0.632338    0.536263     0.005394
PD2674   PD        0.839224    0.600774    0.536498     0.005394
PD2675   PD        0.905031    0.681453    0.538613     0.005394
PD2676   PD        0.069206    0.681642    0.543020     0.005394
PD2677   PD        0.122834    0.663120    0.533704     0.005394
PD2678   PD        0.128143    0.697442    0.505017     0.005394
PD2679   PD        0.160877    0.664070    0.502793     0.005394
PD2680   PD        0.163843    0.695973    0.533966     0.005394
AU2681   AU        0.197477    0.663780    0.536752     0.007504
PD2682   PD        0.197634    0.696791    0.500428     0.005394
AU2683   AU        0.230623    0.664083    0.502483     0.007504
AU2684   AU        0.231919    0.695006    0.535165     0.007504
AU2685   AU        0.272361    0.664681    0.534844     0.007504
PD2686   PD        0.267171    0.694762    0.502569     0.005394
AU2687   AU        0.306238    0.662031    0.500691     0.007504
PD2688   PD        0.306790    0.695105    0.532878     0.005394
AU2689   AU        0.340085    0.663210    0.536884     0.007504
PD2690   PD        0.341714    0.697183    0.502059     0.005394
AU2691   AU        0.373272    0.664086    0.502260     0.007504
AU2692   AU        0.375310    0.695913    0.536650     0.007504
AU2693   AU        0.411172    0.663480    0.538015     0.007504
AU2694   AU        0.409109    0.696524    0.500277     0.007504
PD2695   PD        0.445961    0.662010    0.504461     0.005394
PD2696   PD        0.446702    0.693675    0.536230     0.005394
PD2697   PD        0.484187    0.664371    0.537322     0.005394
PD2698   PD        0.483564    0.697962    0.501455     0.005394
AU2699   AU        0.520122    0.662950    0.503423     0.007504
AU2700   AU        0.520144    0.698631    0.534887     0.007504
PD2701   PD        0.557138    0.663141    0.536988     0.005394
PD2702   PD        0.556181    0.696896    0.503807     0.005394
PD2703   PD        0.591375    0.662822    0.503083     0.005394
PD2704   PD        0.592500    0.697591    0.536827     0.005394
PD2705   PD        0.630617    0.664870    0.535079     0.005394
AU2706   AU        0.627326    0.700635    0.502920     0.007504
PD2707   PD        0.664964    0.665152    0.503317     0.005394
PD2708   PD        0.665634    0.696097    0.536886     0.005394
PD2709   PD        0.697570    0.666581    0.537004     0.005394
PD2710   PD        0.694790    0.695265    0.501934     0.005394
AU2711   AU        0.732606    0.663618    0.502324     0.007504
PD2712   PD        0.731618    0.696481    0.535080     0.005394
AU2713   AU        0.769552    0.663324    0.535673     0.007504
AU2714   AU        0.768418    0.694897    0.503144     0.007504
PD2715   PD        0.804415    0.662816    0.501908     0.005394
PD2716   PD        0.161337    0.729754    0.497741     0.005394
AU2717   AU        0.196604    0.729703    0.534663     0.007504
PD2718   PD        0.197901    0.761987    0.500817     0.005394
AU2719   AU        0.233959    0.728427    0.501661     0.007504
PD2720   PD        0.234273    0.759225    0.533641     0.005394
AU2721   AU        0.268107    0.728342    0.534826     0.007504
PD2722   PD        0.271671    0.763156    0.500556     0.005394
AU2723   AU        0.304531    0.729188    0.501208     0.007504
PD2724   PD        0.302497    0.761408    0.536659     0.005394
PD2725   PD        0.339542    0.728552    0.535831     0.005394
PD2726   PD        0.341012    0.762996    0.499154     0.005394
PD2727   PD        0.373306    0.727926    0.501905     0.005394
PD2728   PD        0.376173    0.760027    0.534881     0.005394
PD2729   PD        0.411777    0.728749    0.534508     0.005394
PD2730   PD        0.411849    0.762319    0.503035     0.005394
PD2731   PD        0.448107    0.730590    0.503993     0.005394
PD2732   PD        0.445320    0.763893    0.534175     0.005394
AU2733   AU        0.482450    0.729108    0.534452     0.007504
PD2734   PD        0.484320    0.761587    0.501984     0.005394
PD2735   PD        0.521517    0.730805    0.501939     0.005394
PD2736   PD        0.520324    0.760969    0.535227     0.005394
PD2737   PD        0.555685    0.731491    0.535245     0.005394
PD2738   PD        0.557131    0.762360    0.502065     0.005394
PD2739   PD        0.591526    0.730869    0.501419     0.005394
AU2740   AU        0.591855    0.763905    0.534257     0.007504
AU2741   AU        0.628039    0.733384    0.534002     0.007504
AU2742   AU        0.627908    0.762096    0.500574     0.007504
PD2743   PD        0.663770    0.728581    0.504149     0.005394
AU2744   AU        0.663750    0.763566    0.534104     0.007504
PD2745   PD        0.698493    0.731629    0.532172     0.005394
PD2746   PD        0.699758    0.761023    0.501341     0.005394
PD2747   PD        0.735853    0.729029    0.504302     0.005394
PD2748   PD        0.236864    0.793803    0.500881     0.005394
AU2749   AU        0.272050    0.794555    0.532991     0.007504
PD2750   PD        0.269713    0.829665    0.499731     0.005394
AU2751   AU        0.305286    0.797491    0.501644     0.007504
PD2752   PD        0.302570    0.833620    0.528249     0.005394
PD2753   PD        0.339713    0.792739    0.534200     0.005394
PD2754   PD        0.337752    0.867272    0.534060     0.005394
PD2755   PD        0.377249    0.798814    0.501631     0.005394
PD2756   PD        0.319778    0.872903    0.590357     0.005394
PD2757   PD        0.413575    0.798043    0.532117     0.005394
PD2758   PD        0.416617    0.830067    0.498436     0.005394
PD2759   PD        0.453916    0.797026    0.500612     0.005394
PD2760   PD        0.448253    0.827963    0.533100     0.005394
PD2761   PD        0.485157    0.794901    0.533693     0.005394
PD2762   PD        0.488117    0.830209    0.500552     0.005394
PD2763   PD        0.519284    0.795935    0.500171     0.005394
PD2764   PD        0.519163    0.826941    0.536308     0.005394
PD2765   PD        0.554258    0.794024    0.534091     0.005394
AU2766   AU        0.553725    0.828333    0.504202     0.007504
AU2767   AU        0.589604    0.797460    0.502622     0.007504
AU2768   AU        0.590080    0.826850    0.536185     0.007504
AU2769   AU        0.628652    0.795443    0.532957     0.007504
PD2770   PD        0.595485    0.922081    0.528686     0.005394
PD2771   PD        0.666205    0.794183    0.499958     0.005394
PD2772   PD        0.450808    0.892756    0.533250     0.005394
AU2773   AU        0.341415    0.099564    0.569236     0.007504
PD2774   PD        0.372941    0.098900    0.604240     0.005394
AU2775   AU        0.406985    0.098968    0.568283     0.007504
PD2776   PD        0.447370    0.100600    0.597448     0.005394
PD2777   PD        0.483934    0.098737    0.568491     0.005394
PD2778   PD        0.510326    0.097329    0.669041     0.005394
PD2779   PD        0.548944    0.099668    0.568927     0.005394
PD2780   PD        0.196110    0.168045    0.569945     0.005394
PD2781   PD        0.236347    0.165323    0.604516     0.005394
PD2782   PD        0.306425    0.099009    0.601707     0.005394
AU2783   AU        0.267487    0.167904    0.568524     0.007504
PD2784   PD        0.304241    0.133678    0.570891     0.005394
AU2785   AU        0.303655    0.166371    0.602368     0.007504
AU2786   AU        0.338082    0.133158    0.603057     0.007504
AU2787   AU        0.338941    0.166060    0.568614     0.007504
AU2788   AU        0.373251    0.132527    0.570433     0.007504
AU2789   AU        0.374934    0.163283    0.602895     0.007504
AU2790   AU        0.410864    0.131550    0.603180     0.007504
AU2791   AU        0.409972    0.165217    0.567678     0.007504
PD2792   PD        0.444292    0.129962    0.569488     0.005394
AU2793   AU        0.444050    0.164851    0.601313     0.007504
PD2794   PD        0.483238    0.132466    0.602972     0.005394
AU2795   AU        0.480914    0.165248    0.567069     0.007504
AU2796   AU        0.517380    0.132504    0.570039     0.007504
AU2797   AU        0.516021    0.165613    0.599935     0.007504
AU2798   AU        0.553957    0.130950    0.603774     0.007504
PD2799   PD        0.554115    0.166195    0.568435     0.005394
PD2800   PD        0.586446    0.129476    0.567531     0.005394
PD2801   PD        0.589943    0.163871    0.602917     0.005394
PD2802   PD        0.623376    0.127504    0.600536     0.005394
AU2803   AU        0.620976    0.164412    0.568675     0.007504
AU2804   AU        0.657923    0.164957    0.600748     0.007504
PD2805   PD        0.695059    0.162666    0.567841     0.005394
PD2806   PD        0.125524    0.236810    0.572873     0.005394
PD2807   PD        0.161421    0.201388    0.568755     0.005394
AU2808   AU        0.162459    0.231724    0.603474     0.007504
PD2809   PD        0.196667    0.201628    0.605252     0.005394
AU2810   AU        0.197863    0.231981    0.573278     0.007504
AU2811   AU        0.231094    0.197601    0.571473     0.007504
AU2812   AU        0.232648    0.233133    0.604094     0.007504
AU2813   AU        0.268911    0.199657    0.604345     0.007504
PD2814   PD        0.264733    0.233226    0.571681     0.005394
PD2815   PD        0.302259    0.199993    0.569058     0.005394
PD2816   PD        0.303745    0.230521    0.601934     0.005394
AU2817   AU        0.340525    0.197893    0.603575     0.007504
AU2818   AU        0.337080    0.230468    0.570022     0.007504
PD2819   PD        0.375027    0.197143    0.569528     0.005394
AU2820   AU        0.375957    0.231739    0.601783     0.007504
AU2821   AU        0.410192    0.197571    0.601087     0.007504
AU2822   AU        0.409826    0.232925    0.569405     0.007504
AU2823   AU        0.445950    0.198065    0.569138     0.007504
AU2824   AU        0.446239    0.232241    0.601118     0.007504
AU2825   AU        0.481085    0.196424    0.600473     0.007504
AU2826   AU        0.480114    0.230155    0.570333     0.007504
AU2827   AU        0.516954    0.198159    0.568510     0.007504
AU2828   AU        0.516221    0.229841    0.602251     0.007504
AU2829   AU        0.552399    0.198667    0.602264     0.007504
AU2830   AU        0.551019    0.230550    0.569221     0.007504
AU2831   AU        0.590287    0.197965    0.569669     0.007504
AU2832   AU        0.588696    0.230618    0.600929     0.007504
PD2833   PD        0.624537    0.196625    0.600548     0.005394
AU2834   AU        0.625326    0.229389    0.569935     0.007504
AU2835   AU        0.661013    0.196766    0.569045     0.007504
AU2836   AU        0.661313    0.228059    0.602277     0.007504
PD2837   PD        0.696046    0.194892    0.601106     0.005394
AU2838   AU        0.695400    0.228556    0.568046     0.007504
AU2839   AU        0.731653    0.161566    0.533410     0.007504
PD2840   PD        0.731587    0.229573    0.596603     0.005394
PD2841   PD        0.808872    0.235736    0.599884     0.005394
PD2842   PD        0.091877    0.300070    0.603765     0.005394
PD2843   PD        0.127859    0.266111    0.603433     0.005394
AU2844   AU        0.128853    0.297560    0.571737     0.007504
PD2845   PD        0.163733    0.265992    0.570796     0.005394
AU2846   AU        0.162442    0.298906    0.603462     0.007504
AU2847   AU        0.197300    0.265950    0.605202     0.007504
AU2848   AU        0.196894    0.297972    0.571856     0.007504
AU2849   AU        0.233322    0.265591    0.570417     0.007504
AU2850   AU        0.233338    0.297646    0.604524     0.007504
PD2851   PD        0.271043    0.265432    0.603813     0.005394
PD2852   PD        0.267250    0.300494    0.568978     0.005394
AU2853   AU        0.303114    0.263180    0.567785     0.007504
AU2854   AU        0.302540    0.299494    0.601083     0.007504
PD2855   PD        0.337650    0.262986    0.602623     0.005394
PD2856   PD        0.339404    0.298522    0.568391     0.005394
AU2857   AU        0.373168    0.267010    0.569291     0.007504
AU2858   AU        0.374278    0.300493    0.604277     0.007504
PD2859   PD        0.411426    0.265822    0.603053     0.005394
AU2860   AU        0.408738    0.297070    0.568503     0.007504
AU2861   AU        0.443215    0.265023    0.567784     0.007504
AU2862   AU        0.447615    0.298345    0.601839     0.007504
AU2863   AU        0.480554    0.265039    0.600771     0.007504
AU2864   AU        0.480942    0.298277    0.567942     0.007504
PD2865   PD        0.517829    0.262664    0.569774     0.005394
PD2866   PD        0.517280    0.297020    0.602842     0.005394
PD2867   PD        0.551134    0.261933    0.602180     0.005394
PD2868   PD        0.554315    0.295005    0.570474     0.005394
AU2869   AU        0.590475    0.263213    0.569216     0.007504
AU2870   AU        0.589521    0.296726    0.602288     0.007504
PD2871   PD        0.625944    0.262130    0.602377     0.005394
PD2872   PD        0.625461    0.293455    0.570429     0.005394
AU2873   AU        0.660892    0.261306    0.569541     0.007504
PD2874   PD        0.659687    0.294256    0.604066     0.005394
AU2875   AU        0.694594    0.261821    0.601691     0.007504
PD2876   PD        0.697187    0.294838    0.570249     0.005394
AU2877   AU        0.731207    0.263152    0.566803     0.007504
PD2878   PD        0.732009    0.292607    0.602988     0.005394
PD2879   PD        0.767547    0.260703    0.599384     0.005394
AU2880   AU        0.768064    0.294003    0.567330     0.007504
PD2881   PD        0.875076    0.302459    0.602855     0.005394
AU2882   AU        0.056390    0.363320    0.569503     0.007504
PD2883   PD        0.094221    0.329780    0.571210     0.005394
PD2884   PD        0.088792    0.364754    0.601095     0.005394
AU2885   AU        0.129053    0.331423    0.605088     0.007504
AU2886   AU        0.125239    0.365503    0.570241     0.007504
AU2887   AU        0.161997    0.332863    0.569503     0.007504
PD2888   PD        0.163263    0.364637    0.603519     0.005394
AU2889   AU        0.199501    0.330524    0.602706     0.007504
PD2890   PD        0.200179    0.362158    0.570004     0.005394
PD2891   PD        0.229171    0.333731    0.569015     0.005394
PD2892   PD        0.233007    0.365389    0.602505     0.005394
AU2893   AU        0.268205    0.332270    0.603780     0.007504
AU2894   AU        0.269936    0.362625    0.570109     0.007504
AU2895   AU        0.305034    0.330832    0.568521     0.007504
PD2896   PD        0.303729    0.365280    0.605310     0.005394
PD2897   PD        0.339631    0.330538    0.601103     0.005394
AU2898   AU        0.340983    0.364035    0.569903     0.007504
AU2899   AU        0.374529    0.330901    0.570590     0.007504
AU2900   AU        0.376310    0.363189    0.601849     0.007504
AU2901   AU        0.412088    0.331250    0.602476     0.007504
AU2902   AU        0.410696    0.362210    0.569800     0.007504
PD2903   PD        0.446879    0.330287    0.569041     0.005394
AU2904   AU        0.449759    0.364047    0.603442     0.007504
AU2905   AU        0.482229    0.328208    0.602796     0.007504
AU2906   AU        0.480855    0.360628    0.569532     0.007504
PD2907   PD        0.517236    0.328792    0.570014     0.005394
AU2908   AU        0.516522    0.364078    0.600485     0.007504
PD2909   PD        0.553865    0.330316    0.603632     0.005394
PD2910   PD        0.551468    0.363476    0.570070     0.005394
PD2911   PD        0.590185    0.329420    0.571190     0.005394
PD2912   PD        0.589171    0.361430    0.605634     0.005394
AU2913   AU        0.624786    0.331410    0.601966     0.007504
AU2914   AU        0.627268    0.365006    0.568466     0.007504
PD2915   PD        0.658824    0.327512    0.569434     0.005394
PD2916   PD        0.662495    0.361365    0.602736     0.005394
AU2917   AU        0.695780    0.326669    0.603064     0.007504
PD2918   PD        0.696976    0.362007    0.571726     0.005394
AU2919   AU        0.733082    0.326023    0.571998     0.007504
PD2920   PD        0.734385    0.363263    0.606029     0.005394
PD2921   PD        0.769708    0.328804    0.601189     0.005394
PD2922   PD        0.765078    0.360713    0.569572     0.005394
PD2923   PD        0.802555    0.330434    0.568591     0.005394
AU2924   AU        0.801728    0.362510    0.601417     0.007504
PD2925   PD        0.837556    0.361740    0.569523     0.005394
PD2926   PD        0.019761    0.397023    0.564870     0.005394
AU2927   AU        0.054739    0.430222    0.565910     0.007504
AU2928   AU        0.092327    0.397110    0.568796     0.007504
PD2929   PD        0.089429    0.431149    0.598887     0.005394
PD2930   PD        0.127282    0.397124    0.602560     0.005394
AU2931   AU        0.126060    0.430480    0.569582     0.007504
AU2932   AU        0.160678    0.395804    0.569106     0.007504
PD2933   PD        0.161406    0.428164    0.603192     0.005394
AU2934   AU        0.196231    0.398341    0.604384     0.007504
PD2935   PD        0.198262    0.430206    0.571181     0.005394
PD2936   PD        0.234442    0.396465    0.570420     0.005394
AU2937   AU        0.232235    0.430449    0.601900     0.007504
AU2938   AU        0.270709    0.397312    0.603191     0.007504
PD2939   PD        0.270113    0.431546    0.569704     0.005394
PD2940   PD        0.304495    0.395637    0.568833     0.005394
PD2941   PD        0.304112    0.429211    0.603160     0.005394
AU2942   AU        0.343310    0.395446    0.604213     0.007504
PD2943   PD        0.342811    0.429994    0.568660     0.005394
AU2944   AU        0.378196    0.397361    0.569974     0.007504
AU2945   AU        0.377778    0.430484    0.604141     0.007504
AU2946   AU        0.411549    0.397013    0.602787     0.007504
PD2947   PD        0.410125    0.430450    0.570332     0.005394
AU2948   AU        0.446075    0.395775    0.569304     0.007504
AU2949   AU        0.446819    0.430382    0.601301     0.007504
AU2950   AU        0.480402    0.396648    0.604918     0.007504
AU2951   AU        0.480486    0.430575    0.568724     0.007504
AU2952   AU        0.516060    0.395820    0.570537     0.007504
PD2953   PD        0.518984    0.432184    0.601442     0.005394
AU2954   AU        0.552065    0.395987    0.603350     0.007504
PD2955   PD        0.551020    0.428153    0.567475     0.005394
PD2956   PD        0.589368    0.398263    0.571710     0.005394
PD2957   PD        0.587185    0.430443    0.604173     0.005394
PD2958   PD        0.625589    0.393734    0.605748     0.005394
PD2959   PD        0.622231    0.433382    0.570397     0.005394
PD2960   PD        0.660010    0.398101    0.572339     0.005394
PD2961   PD        0.660123    0.431239    0.602490     0.005394
PD2962   PD        0.700216    0.398154    0.603464     0.005394
PD2963   PD        0.696483    0.428590    0.570680     0.005394
PD2964   PD        0.732474    0.394821    0.569598     0.005394
PD2965   PD        0.733378    0.432196    0.601910     0.005394
AU2966   AU        0.767822    0.398577    0.600719     0.007504
PD2967   PD        0.766252    0.430282    0.567837     0.005394
PD2968   PD        0.802732    0.396234    0.568621     0.005394
PD2969   PD        0.802924    0.432333    0.599228     0.005394
PD2970   PD        0.835659    0.394500    0.604179     0.005394
PD2971   PD        0.840571    0.428918    0.567045     0.005394
PD2972   PD        0.054128    0.465306    0.599679     0.005394
PD2973   PD        0.057802    0.497862    0.570316     0.005394
PD2974   PD        0.093584    0.464847    0.570123     0.005394
PD2975   PD        0.040960    0.508270    0.691545     0.005394
PD2976   PD        0.128564    0.462726    0.602166     0.005394
AU2977   AU        0.125176    0.498735    0.568357     0.007504
AU2978   AU        0.162034    0.463491    0.569191     0.007504
PD2979   PD        0.163684    0.496256    0.604111     0.005394
AU2980   AU        0.197089    0.463023    0.603602     0.007504
PD2981   PD        0.199303    0.496524    0.567939     0.005394
AU2982   AU        0.233833    0.464518    0.568391     0.007504
AU2983   AU        0.231259    0.497586    0.601637     0.007504
PD2984   PD        0.267820    0.464496    0.599394     0.005394
PD2985   PD        0.269159    0.497910    0.570972     0.005394
AU2986   AU        0.306076    0.464713    0.571628     0.007504
AU2987   AU        0.305223    0.497420    0.603282     0.007504
PD2988   PD        0.342361    0.464257    0.603075     0.005394
AU2989   AU        0.340733    0.498297    0.568958     0.007504
AU2990   AU        0.375562    0.463746    0.569934     0.007504
AU2991   AU        0.377093    0.497711    0.604942     0.007504
AU2992   AU        0.413186    0.466068    0.601331     0.007504
AU2993   AU        0.411251    0.498442    0.569316     0.007504
AU2994   AU        0.446700    0.464835    0.569643     0.007504
AU2995   AU        0.448024    0.498637    0.601293     0.007504
AU2996   AU        0.482497    0.463310    0.602173     0.007504
AU2997   AU        0.483370    0.495791    0.570580     0.007504
PD2998   PD        0.517652    0.463589    0.569066     0.005394
AU2999   AU        0.518369    0.499132    0.602816     0.007504
PD3000   PD        0.553822    0.465297    0.602071     0.005394
AU3001   AU        0.554124    0.498747    0.568379     0.007504
PD3002   PD        0.590019    0.464521    0.570867     0.005394
AU3003   AU        0.590865    0.497575    0.599509     0.007504
PD3004   PD        0.624690    0.465337    0.602958     0.005394
AU3005   AU        0.625066    0.498927    0.568040     0.007504
AU3006   AU        0.660103    0.465658    0.572439     0.007504
PD3007   PD        0.662703    0.500685    0.603938     0.005394
PD3008   PD        0.695454    0.463853    0.603369     0.005394
PD3009   PD        0.694840    0.497481    0.570359     0.005394
PD3010   PD        0.735345    0.465202    0.568872     0.005394
AU3011   AU        0.733074    0.498285    0.601091     0.007504
AU3012   AU        0.768347    0.465354    0.603360     0.007504
PD3013   PD        0.767182    0.497875    0.568878     0.005394
PD3014   PD        0.801808    0.465606    0.567564     0.005394
PD3015   PD        0.801619    0.498863    0.602807     0.005394
PD3016   PD        0.838822    0.461112    0.598459     0.005394
PD3017   PD        0.873705    0.531819    0.570184     0.005394
PD3018   PD        0.056345    0.530622    0.601509     0.005394
AU3019   AU        0.058202    0.563990    0.567828     0.007504
PD3020   PD        0.092529    0.532892    0.569820     0.005394
AU3021   AU        0.091696    0.564430    0.604517     0.007504
PD3022   PD        0.127805    0.528159    0.603969     0.005394
AU3023   AU        0.127693    0.563928    0.569191     0.007504
AU3024   AU        0.164015    0.532245    0.570427     0.007504
PD3025   PD        0.161128    0.563661    0.605601     0.005394
AU3026   AU        0.198106    0.530154    0.602966     0.007504
AU3027   AU        0.196532    0.564326    0.569933     0.007504
AU3028   AU        0.233526    0.531468    0.570153     0.007504
PD3029   PD        0.231573    0.565960    0.601451     0.005394
PD3030   PD        0.268688    0.528651    0.603486     0.005394
AU3031   AU        0.271310    0.564544    0.570109     0.007504
AU3032   AU        0.304571    0.531195    0.570182     0.007504
AU3033   AU        0.305558    0.563871    0.603322     0.007504
AU3034   AU        0.339877    0.529816    0.601869     0.007504
AU3035   AU        0.341603    0.562286    0.570858     0.007504
PD3036   PD        0.373692    0.531881    0.567959     0.005394
AU3037   AU        0.375538    0.563231    0.601910     0.007504
AU3038   AU        0.411123    0.532419    0.602383     0.007504
AU3039   AU        0.409821    0.564953    0.569832     0.007504
AU3040   AU        0.447983    0.530980    0.569790     0.007504
AU3041   AU        0.444401    0.566250    0.601440     0.007504
AU3042   AU        0.484039    0.532080    0.600696     0.007504
AU3043   AU        0.483868    0.564019    0.568395     0.007504
AU3044   AU        0.520421    0.532088    0.568688     0.007504
PD3045   PD        0.518154    0.564732    0.602975     0.005394
AU3046   AU        0.556184    0.531579    0.602496     0.007504
AU3047   AU        0.554773    0.564870    0.570454     0.007504
AU3048   AU        0.590101    0.531825    0.568296     0.007504
AU3049   AU        0.590574    0.564919    0.603326     0.007504
AU3050   AU        0.623692    0.531526    0.602624     0.007504
PD3051   PD        0.625563    0.564005    0.569811     0.005394
AU3052   AU        0.662088    0.531285    0.569547     0.007504
PD3053   PD        0.662449    0.564157    0.600537     0.005394
PD3054   PD        0.697704    0.531836    0.601410     0.005394
PD3055   PD        0.701129    0.565850    0.569388     0.005394
AU3056   AU        0.732389    0.531446    0.570396     0.007504
PD3057   PD        0.733467    0.566856    0.603235     0.005394
AU3058   AU        0.769653    0.530313    0.601861     0.007504
PD3059   PD        0.766463    0.564999    0.568468     0.005394
PD3060   PD        0.803554    0.532951    0.567548     0.005394
AU3061   AU        0.801586    0.563847    0.600911     0.007504
PD3062   PD        0.838249    0.530048    0.603083     0.005394
AU3063   AU        0.839375    0.564911    0.567298     0.007504
PD3064   PD        0.057289    0.633869    0.570961     0.005394
PD3065   PD        0.000714    0.681935    0.539267     0.005394
AU3066   AU        0.125556    0.597211    0.602551     0.007504
PD3067   PD        0.127205    0.628411    0.569596     0.005394
AU3068   AU        0.160850    0.597706    0.569393     0.007504
PD3069   PD        0.165203    0.631458    0.602579     0.005394
PD3070   PD        0.197917    0.598704    0.601630     0.005394
AU3071   AU        0.198497    0.630517    0.569827     0.007504
AU3072   AU        0.233958    0.598366    0.567836     0.007504
PD3073   PD        0.233172    0.632232    0.600521     0.005394
AU3074   AU        0.269786    0.599512    0.601614     0.007504
AU3075   AU        0.268831    0.630436    0.567469     0.007504
AU3076   AU        0.306125    0.597435    0.570829     0.007504
PD3077   PD        0.305056    0.631111    0.603686     0.005394
PD3078   PD        0.342118    0.595704    0.604302     0.005394
PD3079   PD        0.338917    0.631883    0.570533     0.005394
AU3080   AU        0.377392    0.598839    0.568439     0.007504
PD3081   PD        0.376168    0.630922    0.603634     0.005394
AU3082   AU        0.410231    0.598083    0.603382     0.007504
AU3083   AU        0.409323    0.632486    0.570108     0.007504
AU3084   AU        0.446072    0.597723    0.568889     0.007504
AU3085   AU        0.446510    0.630355    0.601851     0.007504
AU3086   AU        0.483430    0.596747    0.603666     0.007504
AU3087   AU        0.483573    0.629404    0.569388     0.007504
PD3088   PD        0.520976    0.598618    0.569685     0.005394
PD3089   PD        0.521813    0.631278    0.601994     0.005394
AU3090   AU        0.555228    0.598454    0.600141     0.007504
PD3091   PD        0.556322    0.633525    0.567215     0.005394
AU3092   AU        0.590945    0.597254    0.570723     0.007504
AU3093   AU        0.593353    0.631830    0.600238     0.007504
PD3094   PD        0.628589    0.595048    0.600161     0.005394
PD3095   PD        0.628490    0.630553    0.568536     0.005394
AU3096   AU        0.664023    0.598641    0.569354     0.007504
AU3097   AU        0.664749    0.631999    0.603379     0.007504
PD3098   PD        0.698317    0.599336    0.602954     0.005394
AU3099   AU        0.698731    0.631905    0.569088     0.007504
AU3100   AU        0.732792    0.598557    0.569354     0.007504
AU3101   AU        0.733603    0.631555    0.601893     0.007504
PD3102   PD        0.770412    0.596774    0.604230     0.005394
AU3103   AU        0.769952    0.632736    0.570547     0.007504
PD3104   PD        0.804284    0.598275    0.568856     0.005394
PD3105   PD        0.805290    0.629299    0.600032     0.005394
AU3106   AU        0.127518    0.659666    0.601448     0.007504
PD3107   PD        0.126816    0.693964    0.567552     0.005394
PD3108   PD        0.162485    0.663122    0.568377     0.005394
PD3109   PD        0.162262    0.695538    0.601003     0.005394
AU3110   AU        0.199738    0.663641    0.603492     0.007504
AU3111   AU        0.198880    0.695421    0.569270     0.007504
AU3112   AU        0.235593    0.663966    0.569079     0.007504
AU3113   AU        0.234158    0.694603    0.601210     0.007504
PD3114   PD        0.266787    0.663387    0.602236     0.005394
AU3115   AU        0.269756    0.696794    0.567306     0.007504
PD3116   PD        0.305440    0.662464    0.569783     0.005394
PD3117   PD        0.304316    0.695364    0.604681     0.005394
PD3118   PD        0.340370    0.665891    0.605275     0.005394
PD3119   PD        0.339694    0.697880    0.568419     0.005394
AU3120   AU        0.373028    0.664697    0.570296     0.007504
AU3121   AU        0.375908    0.696338    0.604402     0.007504
PD3122   PD        0.411915    0.663940    0.604955     0.005394
PD3123   PD        0.412181    0.696414    0.568665     0.005394
AU3124   AU        0.448154    0.662765    0.569715     0.007504
PD3125   PD        0.446588    0.697006    0.601333     0.005394
AU3126   AU        0.484492    0.664827    0.602171     0.007504
AU3127   AU        0.483711    0.697617    0.566658     0.007504
PD3128   PD        0.520196    0.664474    0.568076     0.005394
PD3129   PD        0.519504    0.696969    0.597638     0.005394
PD3130   PD        0.558218    0.662127    0.599858     0.005394
PD3131   PD        0.556504    0.698547    0.565297     0.005394
AU3132   AU        0.592857    0.664264    0.566410     0.007504
PD3133   PD        0.593649    0.696931    0.599380     0.005394
AU3134   AU        0.627100    0.663465    0.601476     0.007504
PD3135   PD        0.627412    0.698422    0.567592     0.005394
AU3136   AU        0.663781    0.663939    0.567926     0.007504
PD3137   PD        0.663918    0.696782    0.602148     0.005394
AU3138   AU        0.699512    0.664314    0.601036     0.007504
PD3139   PD        0.699014    0.698096    0.567296     0.005394
AU3140   AU        0.734705    0.665503    0.568822     0.007504
AU3141   AU        0.735419    0.694617    0.604641     0.007504
PD3142   PD        0.769827    0.664449    0.602714     0.005394
PD3143   PD        0.772908    0.694668    0.571957     0.005394
PD3144   PD        0.160647    0.727755    0.573428     0.005394
PD3145   PD        0.198543    0.728207    0.601984     0.005394
PD3146   PD        0.128328    0.765622    0.570157     0.005394
PD3147   PD        0.232364    0.728390    0.570023     0.005394
PD3148   PD        0.233386    0.763943    0.603916     0.005394
PD3149   PD        0.268329    0.727238    0.602879     0.005394
PD3150   PD        0.269558    0.759725    0.568620     0.005394
PD3151   PD        0.304979    0.730281    0.568410     0.005394
PD3152   PD        0.303866    0.762792    0.599218     0.005394
PD3153   PD        0.339433    0.728205    0.604181     0.005394
PD3154   PD        0.342309    0.761855    0.568726     0.005394
PD3155   PD        0.378017    0.728722    0.570634     0.005394
PD3156   PD        0.377614    0.759846    0.602820     0.005394
PD3157   PD        0.412736    0.730349    0.600716     0.005394
PD3158   PD        0.408177    0.761355    0.568739     0.005394
AU3159   AU        0.446129    0.730046    0.565475     0.007504
AU3160   AU        0.445615    0.760078    0.601721     0.007504
AU3161   AU        0.482964    0.728128    0.600600     0.007504
PD3162   PD        0.481158    0.760174    0.569629     0.005394
PD3163   PD        0.518070    0.729368    0.569322     0.005394
PD3164   PD        0.517714    0.763083    0.599935     0.005394
PD3165   PD        0.555361    0.732107    0.599894     0.005394
AU3166   AU        0.556415    0.762699    0.567788     0.007504
PD3167   PD        0.592753    0.731828    0.566370     0.005394
AU3168   AU        0.591071    0.761329    0.599869     0.007504
AU3169   AU        0.626560    0.730269    0.603610     0.007504
PD3170   PD        0.631460    0.762141    0.569638     0.005394
PD3171   PD        0.662338    0.728992    0.569122     0.005394
PD3172   PD        0.656850    0.765437    0.674460     0.005394
PD3173   PD        0.696381    0.730246    0.599807     0.005394
AU3174   AU        0.698832    0.761050    0.567061     0.007504
AU3175   AU        0.736704    0.726896    0.569805     0.007504
PD3176   PD        0.278721    0.832032    0.638404     0.005394
PD3177   PD        0.310847    0.828892    0.607051     0.005394
PD3178   PD        0.341575    0.794403    0.599283     0.005394
PD3179   PD        0.351365    0.826772    0.566593     0.005394
PD3180   PD        0.376305    0.796385    0.564409     0.005394
PD3181   PD        0.371865    0.828639    0.607982     0.005394
AU3182   AU        0.409282    0.793058    0.601054     0.007504
PD3183   PD        0.412924    0.828193    0.568628     0.005394
PD3184   PD        0.448658    0.791946    0.569286     0.005394
PD3185   PD        0.466192    0.826580    0.590809     0.005394
PD3186   PD        0.483934    0.793372    0.601771     0.005394
PD3187   PD        0.482621    0.860021    0.537733     0.005394
PD3188   PD        0.518530    0.794659    0.568774     0.005394
PD3189   PD        0.518095    0.825661    0.601788     0.005394
PD3190   PD        0.562558    0.899725    0.630088     0.005394
PD3191   PD        0.560783    0.861965    0.531717     0.005394
AU3192   AU        0.590686    0.794780    0.567003     0.007504
PD3193   PD        0.632917    0.792809    0.606661     0.005394
PD3194   PD        0.266067    0.164744    0.634040     0.005394
PD3195   PD        0.301469    0.096484    0.661489     0.005394
AU3196   AU        0.336846    0.165215    0.636811     0.007504
AU3197   AU        0.373356    0.133627    0.634987     0.007504
AU3198   AU        0.374244    0.166502    0.669130     0.007504
AU3199   AU        0.410585    0.133459    0.668242     0.007504
PD3200   PD        0.410074    0.165188    0.636588     0.005394
PD3201   PD        0.448067    0.134020    0.634762     0.005394
PD3202   PD        0.446297    0.166054    0.666131     0.005394
PD3203   PD        0.443297    0.099783    0.674698     0.005394
PD3204   PD        0.481936    0.164705    0.634552     0.005394
PD3205   PD        0.518707    0.129767    0.635256     0.005394
AU3206   AU        0.517267    0.166161    0.666974     0.007504
AU3207   AU        0.552733    0.165383    0.633501     0.007504
PD3208   PD        0.585489    0.164470    0.666416     0.005394
PD3209   PD        0.625208    0.162214    0.633121     0.005394
AU3210   AU        0.198101    0.233929    0.636552     0.007504
AU3211   AU        0.231085    0.198908    0.636521     0.007504
AU3212   AU        0.232295    0.234127    0.670659     0.007504
PD3213   PD        0.268057    0.200940    0.668512     0.005394
AU3214   AU        0.267608    0.231895    0.636407     0.007504
PD3215   PD        0.303256    0.199233    0.633850     0.005394
AU3216   AU        0.306075    0.233361    0.668300     0.007504
AU3217   AU        0.340367    0.197922    0.668551     0.007504
AU3218   AU        0.340448    0.230815    0.633306     0.007504
AU3219   AU        0.375088    0.198537    0.635570     0.007504
PD3220   PD        0.374060    0.231261    0.668923     0.005394
AU3221   AU        0.408955    0.198527    0.668775     0.007504
AU3222   AU        0.410158    0.230389    0.634900     0.007504
AU3223   AU        0.445571    0.198677    0.632905     0.007504
AU3224   AU        0.445765    0.229040    0.666037     0.007504
AU3225   AU        0.481361    0.199235    0.667848     0.007504
AU3226   AU        0.480328    0.230079    0.633390     0.007504
AU3227   AU        0.515182    0.196826    0.634078     0.007504
PD3228   PD        0.516743    0.230735    0.667002     0.005394
PD3229   PD        0.552112    0.201152    0.667944     0.005394
PD3230   PD        0.553764    0.228285    0.634707     0.005394
PD3231   PD        0.588653    0.196982    0.632078     0.005394
PD3232   PD        0.589047    0.229622    0.667990     0.005394
PD3233   PD        0.625308    0.193814    0.664297     0.005394
PD3234   PD        0.625685    0.227239    0.634315     0.005394
PD3235   PD        0.661250    0.195501    0.633442     0.005394
AU3236   AU        0.661591    0.227659    0.665953     0.007504
PD3237   PD        0.697098    0.228328    0.633664     0.005394
AU3238   AU        0.125883    0.298260    0.636677     0.007504
AU3239   AU        0.160556    0.266137    0.636869     0.007504
AU3240   AU        0.166302    0.299850    0.667389     0.007504
AU3241   AU        0.196238    0.266958    0.667660     0.007504
AU3242   AU        0.199502    0.298194    0.634885     0.007504
AU3243   AU        0.234685    0.265318    0.635508     0.007504
PD3244   PD        0.235448    0.299971    0.666434     0.005394
AU3245   AU        0.268676    0.266418    0.670397     0.007504
PD3246   PD        0.271020    0.297269    0.636358     0.005394
PD3247   PD        0.304274    0.265367    0.636806     0.005394
PD3248   PD        0.302638    0.298181    0.668386     0.005394
PD3249   PD        0.342044    0.266315    0.667328     0.005394
PD3250   PD        0.338085    0.298827    0.635721     0.005394
PD3251   PD        0.376076    0.265706    0.634037     0.005394
PD3252   PD        0.375850    0.300233    0.668677     0.005394
AU3253   AU        0.409078    0.263225    0.669460     0.007504
AU3254   AU        0.411686    0.296801    0.634859     0.007504
AU3255   AU        0.446383    0.263154    0.637009     0.007504
AU3256   AU        0.446367    0.298253    0.668969     0.007504
PD3257   PD        0.482233    0.261021    0.668635     0.005394
PD3258   PD        0.480758    0.294789    0.634113     0.005394
PD3259   PD        0.519233    0.264081    0.633324     0.005394
PD3260   PD        0.516259    0.295695    0.668599     0.005394
PD3261   PD        0.553317    0.262995    0.669268     0.005394
PD3262   PD        0.554838    0.296112    0.633845     0.005394
PD3263   PD        0.588253    0.261671    0.634298     0.005394
AU3264   AU        0.587741    0.298674    0.671915     0.007504
PD3265   PD        0.624515    0.262281    0.666988     0.005394
PD3266   PD        0.621470    0.297469    0.639250     0.005394
AU3267   AU        0.658598    0.260960    0.635158     0.007504
AU3268   AU        0.660349    0.294607    0.667008     0.007504
PD3269   PD        0.695252    0.262699    0.666249     0.005394
AU3270   AU        0.694775    0.292023    0.634475     0.007504
PD3271   PD        0.732817    0.261639    0.637202     0.005394
AU3272   AU        0.729640    0.296070    0.668970     0.007504
PD3273   PD        0.791668    0.307547    0.640980     0.005394
PD3274   PD        0.128744    0.331273    0.667516     0.005394
PD3275   PD        0.128146    0.364846    0.637503     0.005394
AU3276   AU        0.164597    0.331282    0.634852     0.007504
AU3277   AU        0.163072    0.363718    0.669856     0.007504
AU3278   AU        0.197811    0.331310    0.669040     0.007504
AU3279   AU        0.197032    0.364368    0.636548     0.007504
PD3280   PD        0.234374    0.331576    0.637069     0.005394
AU3281   AU        0.234520    0.362343    0.670393     0.007504
PD3282   PD        0.271984    0.334317    0.669888     0.005394
AU3283   AU        0.267468    0.365262    0.634666     0.007504
AU3284   AU        0.306322    0.332355    0.636106     0.007504
PD3285   PD        0.303739    0.365548    0.669166     0.005394
PD3286   PD        0.340152    0.332345    0.668156     0.005394
PD3287   PD        0.341375    0.364172    0.635290     0.005394
AU3288   AU        0.377869    0.331295    0.635318     0.007504
AU3289   AU        0.375770    0.363390    0.669871     0.007504
PD3290   PD        0.411164    0.330828    0.668818     0.005394
AU3291   AU        0.412106    0.364262    0.635648     0.007504
AU3292   AU        0.446619    0.329014    0.634027     0.007504
AU3293   AU        0.445406    0.362457    0.669277     0.007504
AU3294   AU        0.480888    0.329862    0.671610     0.007504
AU3295   AU        0.483082    0.360659    0.635648     0.007504
PD3296   PD        0.516939    0.328334    0.634559     0.005394
AU3297   AU        0.516305    0.364505    0.669307     0.007504
AU3298   AU        0.552627    0.330328    0.667059     0.007504
PD3299   PD        0.549677    0.362443    0.636878     0.005394
PD3300   PD        0.589612    0.333377    0.633428     0.005394
PD3301   PD        0.586070    0.360705    0.667722     0.005394
PD3302   PD        0.623442    0.331372    0.672788     0.005394
PD3303   PD        0.625992    0.365719    0.633600     0.005394
PD3304   PD        0.661041    0.328893    0.635910     0.005394
PD3305   PD        0.659062    0.363123    0.666905     0.005394
PD3306   PD        0.694507    0.329360    0.667505     0.005394
PD3307   PD        0.695209    0.365114    0.634489     0.005394
PD3308   PD        0.731573    0.329120    0.634052     0.005394
PD3309   PD        0.728432    0.361852    0.667881     0.005394
PD3310   PD        0.767202    0.328990    0.670830     0.005394
PD3311   PD        0.764974    0.360122    0.638438     0.005394
PD3312   PD        0.090433    0.397894    0.631545     0.005394
PD3313   PD        0.016986    0.470035    0.705620     0.005394
PD3314   PD        0.125621    0.397512    0.666918     0.005394
AU3315   AU        0.128616    0.430787    0.635238     0.007504
PD3316   PD        0.162440    0.395882    0.636694     0.005394
AU3317   AU        0.161477    0.431586    0.668049     0.007504
AU3318   AU        0.198916    0.396409    0.667409     0.007504
AU3319   AU        0.197549    0.430319    0.637469     0.007504
AU3320   AU        0.232887    0.396658    0.635226     0.007504
AU3321   AU        0.234099    0.429231    0.670215     0.007504
AU3322   AU        0.266856    0.397189    0.667991     0.007504
AU3323   AU        0.267501    0.430130    0.635448     0.007504
PD3324   PD        0.306772    0.397607    0.634983     0.005394
AU3325   AU        0.306207    0.431866    0.666505     0.007504
AU3326   AU        0.340499    0.396548    0.668979     0.007504
AU3327   AU        0.342402    0.431397    0.635095     0.007504
AU3328   AU        0.377574    0.395868    0.638104     0.007504
AU3329   AU        0.378206    0.431757    0.668285     0.007504
AU3330   AU        0.412348    0.397777    0.668203     0.007504
PD3331   PD        0.413318    0.430513    0.635999     0.005394
AU3332   AU        0.446003    0.396812    0.636023     0.007504
AU3333   AU        0.448168    0.431652    0.670079     0.007504
AU3334   AU        0.479718    0.396333    0.668154     0.007504
AU3335   AU        0.482047    0.430980    0.636292     0.007504
AU3336   AU        0.516994    0.396299    0.636294     0.007504
PD3337   PD        0.518818    0.430898    0.668988     0.005394
PD3338   PD        0.551646    0.396293    0.669164     0.005394
AU3339   AU        0.550845    0.430167    0.636847     0.007504
AU3340   AU        0.589702    0.397212    0.636340     0.007504
AU3341   AU        0.588777    0.428648    0.669343     0.007504
AU3342   AU        0.624950    0.397853    0.668855     0.007504
PD3343   PD        0.626144    0.431426    0.638029     0.005394
PD3344   PD        0.661644    0.399372    0.636601     0.005394
AU3345   AU        0.660917    0.430703    0.669683     0.007504
AU3346   AU        0.695511    0.397610    0.670413     0.007504
AU3347   AU        0.696959    0.430256    0.634497     0.007504
PD3348   PD        0.732529    0.395953    0.636696     0.005394
PD3349   PD        0.731386    0.430935    0.666593     0.005394
PD3350   PD        0.765554    0.394289    0.671535     0.005394
PD3351   PD        0.770459    0.433675    0.635398     0.005394
PD3352   PD        0.797341    0.394748    0.633701     0.005394
PD3353   PD        0.829067    0.399193    0.685947     0.005394
PD3354   PD        0.093529    0.462453    0.632292     0.005394
PD3355   PD        0.097596    0.531967    0.700348     0.005394
PD3356   PD        0.125567    0.460663    0.670302     0.005394
PD3357   PD        0.128420    0.496817    0.637427     0.005394
PD3358   PD        0.162920    0.464212    0.635891     0.005394
AU3359   AU        0.164704    0.496628    0.671077     0.007504
AU3360   AU        0.199577    0.461828    0.670432     0.007504
AU3361   AU        0.198679    0.496653    0.637282     0.007504
PD3362   PD        0.234278    0.461792    0.635609     0.005394
PD3363   PD        0.234297    0.497718    0.668944     0.005394
PD3364   PD        0.270724    0.466836    0.669048     0.005394
AU3365   AU        0.268829    0.496661    0.635554     0.007504
PD3366   PD        0.302124    0.462532    0.632742     0.005394
PD3367   PD        0.305344    0.499813    0.670667     0.005394
AU3368   AU        0.340622    0.462734    0.666899     0.007504
AU3369   AU        0.342635    0.497215    0.635156     0.007504
AU3370   AU        0.379389    0.462948    0.635134     0.007504
PD3371   PD        0.378777    0.495762    0.667869     0.005394
PD3372   PD        0.414190    0.463914    0.667986     0.005394
AU3373   AU        0.413093    0.497677    0.635292     0.007504
PD3374   PD        0.447346    0.463657    0.635273     0.005394
PD3375   PD        0.448719    0.497899    0.667222     0.005394
AU3376   AU        0.484137    0.462624    0.670114     0.007504
PD3377   PD        0.482371    0.498404    0.636195     0.005394
PD3378   PD        0.520468    0.465179    0.635721     0.005394
AU3379   AU        0.519898    0.497720    0.667490     0.007504
AU3380   AU        0.555721    0.463292    0.669147     0.007504
AU3381   AU        0.556026    0.498387    0.635134     0.007504
PD3382   PD        0.589465    0.467086    0.635384     0.005394
AU3383   AU        0.588461    0.497950    0.669518     0.007504
PD3384   PD        0.622953    0.464510    0.670298     0.005394
PD3385   PD        0.624797    0.497080    0.635125     0.005394
PD3386   PD        0.661256    0.464053    0.635071     0.005394
PD3387   PD        0.661145    0.496193    0.666045     0.005394
PD3388   PD        0.696732    0.466314    0.667137     0.005394
AU3389   AU        0.697491    0.498397    0.634448     0.007504
AU3390   AU        0.733147    0.466071    0.634278     0.007504
AU3391   AU        0.732540    0.495516    0.665288     0.007504
AU3392   AU        0.769719    0.466979    0.668383     0.007504
AU3393   AU        0.769929    0.499701    0.635317     0.007504
PD3394   PD        0.805635    0.466368    0.636492     0.005394
PD3395   PD        0.815491    0.478031    0.687440     0.005394
PD3396   PD        0.092518    0.531665    0.633939     0.005394
AU3397   AU        0.128869    0.528534    0.668261     0.007504
AU3398   AU        0.128935    0.561781    0.635689     0.007504
AU3399   AU        0.163106    0.528373    0.635029     0.007504
PD3400   PD        0.163513    0.561047    0.669648     0.005394
PD3401   PD        0.197507    0.530242    0.667942     0.005394
PD3402   PD        0.196201    0.567074    0.635558     0.005394
PD3403   PD        0.234233    0.530281    0.638629     0.005394
PD3404   PD        0.232449    0.563708    0.666593     0.005394
PD3405   PD        0.271041    0.530551    0.667863     0.005394
AU3406   AU        0.267487    0.564142    0.634925     0.007504
AU3407   AU        0.305898    0.530834    0.634810     0.007504
AU3408   AU        0.305858    0.563902    0.666936     0.007504
AU3409   AU        0.341531    0.532041    0.667551     0.007504
PD3410   PD        0.340981    0.564122    0.634198     0.005394
AU3411   AU        0.374260    0.531039    0.635802     0.007504
AU3412   AU        0.375676    0.566604    0.667489     0.007504
AU3413   AU        0.412865    0.532047    0.669251     0.007504
AU3414   AU        0.410910    0.562729    0.634942     0.007504
PD3415   PD        0.448140    0.533148    0.634102     0.005394
PD3416   PD        0.446834    0.563119    0.667119     0.005394
PD3417   PD        0.486010    0.532114    0.666611     0.005394
AU3418   AU        0.483461    0.564273    0.635206     0.007504
AU3419   AU        0.521222    0.531028    0.636402     0.007504
PD3420   PD        0.524174    0.566442    0.667034     0.005394
PD3421   PD        0.554917    0.532116    0.670026     0.005394
AU3422   AU        0.555585    0.564716    0.634786     0.007504
AU3423   AU        0.590536    0.528968    0.635218     0.007504
AU3424   AU        0.591061    0.563346    0.666347     0.007504
AU3425   AU        0.626512    0.530595    0.666687     0.007504
AU3426   AU        0.625230    0.562200    0.634555     0.007504
PD3427   PD        0.664310    0.533925    0.634196     0.005394
AU3428   AU        0.663221    0.565295    0.669537     0.007504
PD3429   PD        0.695658    0.530237    0.667548     0.005394
PD3430   PD        0.699146    0.564242    0.632864     0.005394
AU3431   AU        0.732668    0.531636    0.633456     0.007504
PD3432   PD        0.730186    0.562945    0.668237     0.005394
PD3433   PD        0.766714    0.565064    0.700336     0.005394
PD3434   PD        0.767131    0.562943    0.635215     0.005394
AU3435   AU        0.801845    0.533229    0.635814     0.007504
PD3436   PD        0.128743    0.593750    0.668297     0.005394
PD3437   PD        0.125664    0.628112    0.633895     0.005394
PD3438   PD        0.162516    0.597826    0.634049     0.005394
PD3439   PD        0.135113    0.672706    0.671642     0.005394
PD3440   PD        0.198098    0.596485    0.667454     0.005394
PD3441   PD        0.199428    0.630187    0.638078     0.005394
AU3442   AU        0.232710    0.596303    0.632777     0.007504
PD3443   PD        0.235868    0.629718    0.668071     0.005394
AU3444   AU        0.267933    0.596229    0.668113     0.007504
AU3445   AU        0.268094    0.631357    0.635365     0.007504
PD3446   PD        0.303468    0.599382    0.635550     0.005394
AU3447   AU        0.306133    0.630556    0.669439     0.007504
PD3448   PD        0.340041    0.596090    0.668454     0.005394
AU3449   AU        0.341118    0.629725    0.636913     0.007504
AU3450   AU        0.379351    0.599311    0.636507     0.007504
PD3451   PD        0.374885    0.630620    0.668954     0.005394
PD3452   PD        0.414125    0.594574    0.667823     0.005394
AU3453   AU        0.412177    0.630749    0.637719     0.007504
AU3454   AU        0.448589    0.598375    0.634949     0.007504
PD3455   PD        0.447095    0.631970    0.666491     0.005394
AU3456   AU        0.482372    0.598231    0.667973     0.007504
PD3457   PD        0.482677    0.631250    0.635716     0.005394
PD3458   PD        0.519588    0.599169    0.634706     0.005394
PD3459   PD        0.516795    0.630048    0.665682     0.005394
PD3460   PD        0.557716    0.597252    0.667074     0.005394
PD3461   PD        0.558609    0.630516    0.632952     0.005394
AU3462   AU        0.594237    0.599082    0.633308     0.007504
AU3463   AU        0.592839    0.632653    0.667406     0.007504
PD3464   PD        0.628961    0.597163    0.664922     0.005394
AU3465   AU        0.626858    0.631426    0.631598     0.007504
AU3466   AU        0.661049    0.596981    0.633332     0.007504
AU3467   AU        0.663087    0.630741    0.666565     0.007504
AU3468   AU        0.698110    0.598698    0.665950     0.007504
PD3469   PD        0.697162    0.631094    0.635298     0.005394
AU3470   AU        0.732580    0.599819    0.635396     0.007504
PD3471   PD        0.734361    0.631732    0.669656     0.005394
PD3472   PD        0.766711    0.596009    0.666616     0.005394
PD3473   PD        0.768003    0.632603    0.635107     0.005394
PD3474   PD        0.161209    0.661941    0.632846     0.005394
PD3475   PD        0.198806    0.663312    0.673508     0.005394
PD3476   PD        0.194704    0.694367    0.636825     0.005394
AU3477   AU        0.233319    0.664338    0.637114     0.007504
AU3478   AU        0.231051    0.696485    0.670291     0.007504
PD3479   PD        0.269683    0.664759    0.669789     0.005394
PD3480   PD        0.266898    0.694674    0.638455     0.005394
PD3481   PD        0.304880    0.662951    0.637422     0.005394
PD3482   PD        0.303101    0.696161    0.668160     0.005394
PD3483   PD        0.342534    0.664280    0.671537     0.005394
PD3484   PD        0.340792    0.698133    0.638116     0.005394
AU3485   AU        0.375263    0.663769    0.637185     0.007504
AU3486   AU        0.377219    0.697012    0.668107     0.007504
AU3487   AU        0.411441    0.664675    0.668073     0.007504
AU3488   AU        0.413327    0.697650    0.634584     0.007504
AU3489   AU        0.448332    0.662805    0.635916     0.007504
AU3490   AU        0.448619    0.696342    0.668427     0.007504
AU3491   AU        0.482896    0.663682    0.668070     0.007504
PD3492   PD        0.484279    0.696451    0.633966     0.005394
PD3493   PD        0.519434    0.662277    0.633207     0.005394
AU3494   AU        0.517069    0.697861    0.666601     0.007504
PD3495   PD        0.553265    0.661864    0.668999     0.005394
PD3496   PD        0.558470    0.696827    0.636579     0.005394
PD3497   PD        0.591332    0.664785    0.636650     0.005394
PD3498   PD        0.588736    0.692957    0.664530     0.005394
AU3499   AU        0.628460    0.663728    0.666947     0.007504
PD3500   PD        0.626232    0.696591    0.633633     0.005394
AU3501   AU        0.662464    0.663248    0.634061     0.007504
PD3502   PD        0.664046    0.695171    0.667592     0.005394
AU3503   AU        0.696974    0.663139    0.666149     0.007504
AU3504   AU        0.699308    0.698275    0.634400     0.007504
AU3505   AU        0.733403    0.661376    0.635269     0.007504
PD3506   PD        0.231153    0.727530    0.633616     0.005394
PD3507   PD        0.269811    0.730859    0.668369     0.005394
PD3508   PD        0.270318    0.763181    0.632891     0.005394
PD3509   PD        0.304845    0.729460    0.636553     0.005394
PD3510   PD        0.308193    0.760905    0.666938     0.005394
PD3511   PD        0.341385    0.729716    0.669670     0.005394
PD3512   PD        0.339565    0.761179    0.632619     0.005394
AU3513   AU        0.376818    0.728210    0.637463     0.007504
PD3514   PD        0.374383    0.761961    0.667711     0.005394
PD3515   PD        0.411473    0.727258    0.667762     0.005394
AU3516   AU        0.413651    0.760593    0.636165     0.007504
PD3517   PD        0.447857    0.728874    0.634072     0.005394
AU3518   AU        0.446698    0.759317    0.668208     0.007504
PD3519   PD        0.482673    0.729242    0.671373     0.005394
PD3520   PD        0.483322    0.762548    0.634994     0.005394
PD3521   PD        0.518754    0.727699    0.633118     0.005394
PD3522   PD        0.520253    0.759142    0.669476     0.005394
PD3523   PD        0.554866    0.727421    0.667133     0.005394
AU3524   AU        0.551110    0.760760    0.636140     0.007504
PD3525   PD        0.593300    0.730864    0.635282     0.005394
AU3526   AU        0.591694    0.763373    0.668251     0.007504
AU3527   AU        0.628531    0.730294    0.668817     0.007504
PD3528   PD        0.623467    0.797076    0.675560     0.005394
PD3529   PD        0.660382    0.729663    0.634645     0.005394
AU3530   AU        0.375650    0.792202    0.633414     0.007504
PD3531   PD        0.413746    0.794307    0.667211     0.005394
PD3532   PD        0.446226    0.798336    0.629028     0.005394
PD3533   PD        0.481682    0.792578    0.671689     0.005394
PD3534   PD        0.516922    0.797071    0.635134     0.005394
PD3535   PD        0.329288    0.139324    0.698894     0.005394
PD3536   PD        0.516645    0.168808    0.736968     0.005394
PD3537   PD        0.270697    0.232296    0.700930     0.005394
PD3538   PD        0.278231    0.131793    0.738164     0.005394
PD3539   PD        0.302653    0.236350    0.733815     0.005394
AU3540   AU        0.341543    0.232686    0.701065     0.007504
PD3541   PD        0.376615    0.199183    0.701455     0.005394
PD3542   PD        0.377701    0.234656    0.736222     0.005394
PD3543   PD        0.409101    0.195184    0.731393     0.005394
AU3544   AU        0.409049    0.230992    0.702153     0.007504
PD3545   PD        0.446274    0.198169    0.698223     0.005394
AU3546   AU        0.443280    0.229046    0.732815     0.007504
PD3547   PD        0.479515    0.199310    0.730775     0.005394
AU3548   AU        0.480675    0.230595    0.702236     0.007504
PD3549   PD        0.516083    0.198024    0.701425     0.005394
PD3550   PD        0.519785    0.230141    0.735400     0.005394
PD3551   PD        0.553038    0.229466    0.702096     0.005394
PD3552   PD        0.619542    0.198348    0.741417     0.005394
PD3553   PD        0.587052    0.229203    0.732934     0.005394
PD3554   PD        0.624176    0.229395    0.697219     0.005394
AU3555   AU        0.197242    0.300930    0.703245     0.007504
PD3556   PD        0.230209    0.266577    0.701754     0.005394
PD3557   PD        0.233375    0.298201    0.736358     0.005394
PD3558   PD        0.270055    0.268080    0.736872     0.005394
PD3559   PD        0.269065    0.299950    0.703431     0.005394
PD3560   PD        0.309015    0.267053    0.702216     0.005394
AU3561   AU        0.304730    0.300772    0.733423     0.007504
PD3562   PD        0.341213    0.266710    0.735146     0.005394
PD3563   PD        0.342246    0.296188    0.700801     0.005394
PD3564   PD        0.375249    0.265375    0.703025     0.005394
AU3565   AU        0.377280    0.297691    0.734353     0.007504
PD3566   PD        0.414356    0.267890    0.734602     0.005394
AU3567   AU        0.410014    0.298036    0.700009     0.007504
AU3568   AU        0.445025    0.263672    0.699809     0.007504
PD3569   PD        0.442646    0.296122    0.732905     0.005394
PD3570   PD        0.482208    0.263515    0.735780     0.005394
PD3571   PD        0.480345    0.297111    0.702773     0.005394
PD3572   PD        0.516297    0.263599    0.700681     0.005394
PD3573   PD        0.517155    0.298525    0.736807     0.005394
PD3574   PD        0.553609    0.262987    0.734114     0.005394
PD3575   PD        0.552427    0.298549    0.703368     0.005394
AU3576   AU        0.587018    0.262991    0.699556     0.007504
PD3577   PD        0.591300    0.294755    0.734031     0.005394
PD3578   PD        0.622757    0.259769    0.731267     0.005394
AU3579   AU        0.625293    0.296662    0.700802     0.007504
PD3580   PD        0.661244    0.262860    0.701352     0.005394
PD3581   PD        0.697872    0.271233    0.742453     0.005394
AU3582   AU        0.694184    0.294636    0.699933     0.007504
PD3583   PD        0.160299    0.333868    0.701076     0.005394
PD3584   PD        0.200475    0.331742    0.737559     0.005394
AU3585   AU        0.197997    0.364583    0.701340     0.007504
AU3586   AU        0.234039    0.331321    0.702421     0.007504
AU3587   AU        0.233738    0.365613    0.733661     0.007504
AU3588   AU        0.268919    0.333428    0.734789     0.007504
AU3589   AU        0.270122    0.365019    0.703989     0.007504
PD3590   PD        0.305264    0.333608    0.701150     0.005394
AU3591   AU        0.305464    0.362002    0.734253     0.007504
PD3592   PD        0.340891    0.331127    0.735132     0.005394
PD3593   PD        0.338300    0.366764    0.701186     0.005394
AU3594   AU        0.373744    0.332993    0.702970     0.007504
PD3595   PD        0.376267    0.363063    0.736595     0.005394
AU3596   AU        0.411064    0.331452    0.733916     0.007504
AU3597   AU        0.412669    0.363911    0.702695     0.007504
AU3598   AU        0.447188    0.331657    0.704098     0.007504
AU3599   AU        0.446596    0.364936    0.735095     0.007504
AU3600   AU        0.481781    0.331589    0.735188     0.007504
AU3601   AU        0.483381    0.365093    0.701867     0.007504
PD3602   PD        0.517932    0.329816    0.701336     0.005394
AU3603   AU        0.516529    0.364269    0.734545     0.007504
PD3604   PD        0.551964    0.333151    0.734130     0.005394
AU3605   AU        0.555129    0.364188    0.703125     0.007504
PD3606   PD        0.587348    0.331042    0.705168     0.005394
AU3607   AU        0.589227    0.363036    0.735907     0.007504
PD3608   PD        0.624719    0.330587    0.733824     0.005394
PD3609   PD        0.623774    0.361050    0.701294     0.005394
AU3610   AU        0.662706    0.330730    0.701530     0.007504
PD3611   PD        0.660853    0.364158    0.734288     0.005394
PD3612   PD        0.692736    0.362908    0.769439     0.005394
PD3613   PD        0.695026    0.361614    0.701613     0.005394
AU3614   AU        0.731546    0.328211    0.702782     0.007504
PD3615   PD        0.125874    0.427788    0.705178     0.005394
AU3616   AU        0.160110    0.397380    0.700435     0.007504
PD3617   PD        0.163115    0.425882    0.735596     0.005394
AU3618   AU        0.199822    0.397711    0.735252     0.007504
AU3619   AU        0.198040    0.429422    0.701518     0.007504
AU3620   AU        0.234336    0.397267    0.702435     0.007504
AU3621   AU        0.235395    0.430850    0.733397     0.007504
AU3622   AU        0.269595    0.398800    0.734939     0.007504
AU3623   AU        0.270805    0.429472    0.701177     0.007504
PD3624   PD        0.306751    0.399097    0.702398     0.005394
PD3625   PD        0.304633    0.432743    0.735979     0.005394
PD3626   PD        0.338107    0.396275    0.735605     0.005394
AU3627   AU        0.337647    0.428467    0.700972     0.007504
AU3628   AU        0.375590    0.399247    0.702657     0.007504
AU3629   AU        0.374246    0.430741    0.734290     0.007504
PD3630   PD        0.412421    0.399582    0.733298     0.005394
AU3631   AU        0.412071    0.431773    0.700323     0.007504
AU3632   AU        0.446730    0.396828    0.703194     0.007504
PD3633   PD        0.449494    0.432787    0.734777     0.005394
AU3634   AU        0.482943    0.396494    0.735573     0.007504
AU3635   AU        0.485431    0.429349    0.702645     0.007504
PD3636   PD        0.519994    0.395546    0.700949     0.005394
AU3637   AU        0.520942    0.430163    0.735601     0.007504
AU3638   AU        0.553461    0.397133    0.734101     0.007504
AU3639   AU        0.554417    0.427880    0.701879     0.007504
AU3640   AU        0.590736    0.395033    0.701428     0.007504
PD3641   PD        0.591208    0.429626    0.733279     0.005394
PD3642   PD        0.624207    0.395534    0.733560     0.005394
PD3643   PD        0.624323    0.431158    0.699803     0.005394
AU3644   AU        0.661014    0.396595    0.699144     0.007504
PD3645   PD        0.659333    0.430711    0.736888     0.005394
PD3646   PD        0.698151    0.395712    0.735417     0.005394
PD3647   PD        0.694957    0.429095    0.702213     0.005394
PD3648   PD        0.732680    0.367446    0.727602     0.005394
PD3649   PD        0.732220    0.389942    0.764713     0.005394
PD3650   PD        0.765958    0.432540    0.696796     0.005394
PD3651   PD        0.130629    0.494987    0.701108     0.005394
PD3652   PD        0.165180    0.462399    0.701736     0.005394
PD3653   PD        0.164080    0.497720    0.732318     0.005394
PD3654   PD        0.201320    0.462373    0.731004     0.005394
PD3655   PD        0.198195    0.497999    0.703543     0.005394
PD3656   PD        0.233929    0.465342    0.700201     0.005394
AU3657   AU        0.236633    0.497090    0.734426     0.007504
AU3658   AU        0.271454    0.465826    0.731698     0.007504
PD3659   PD        0.270185    0.500850    0.699687     0.005394
PD3660   PD        0.307411    0.465426    0.700199     0.005394
PD3661   PD        0.303841    0.499426    0.732048     0.005394
PD3662   PD        0.340907    0.464436    0.734629     0.005394
AU3663   AU        0.344071    0.498531    0.700474     0.007504
PD3664   PD        0.376591    0.464156    0.700550     0.005394
PD3665   PD        0.376687    0.496835    0.733769     0.005394
AU3666   AU        0.410694    0.462665    0.735018     0.007504
AU3667   AU        0.412847    0.496722    0.700177     0.007504
PD3668   PD        0.450246    0.465064    0.704170     0.005394
AU3669   AU        0.448624    0.497595    0.735499     0.007504
PD3670   PD        0.484187    0.463012    0.736037     0.005394
PD3671   PD        0.485307    0.494584    0.701005     0.005394
AU3672   AU        0.519884    0.463078    0.700278     0.007504
AU3673   AU        0.517963    0.496689    0.735113     0.007504
PD3674   PD        0.552757    0.462983    0.734604     0.005394
AU3675   AU        0.554717    0.495585    0.703134     0.007504
AU3676   AU        0.589012    0.462264    0.703479     0.007504
AU3677   AU        0.591354    0.496111    0.734341     0.007504
PD3678   PD        0.625193    0.465075    0.736654     0.005394
PD3679   PD        0.624705    0.494765    0.702568     0.005394
AU3680   AU        0.660389    0.461224    0.702886     0.007504
PD3681   PD        0.661574    0.498017    0.732941     0.005394
PD3682   PD        0.695442    0.462505    0.738373     0.005394
PD3683   PD        0.692488    0.497992    0.702928     0.005394
PD3684   PD        0.731499    0.465384    0.699579     0.005394
PD3685   PD        0.769617    0.501283    0.764178     0.005394
PD3686   PD        0.768694    0.496585    0.703757     0.005394
PD3687   PD        0.164949    0.530338    0.701031     0.005394
PD3688   PD        0.198633    0.532440    0.734068     0.005394
PD3689   PD        0.200460    0.563724    0.701185     0.005394
AU3690   AU        0.234577    0.532706    0.700795     0.007504
AU3691   AU        0.235159    0.565753    0.735919     0.007504
AU3692   AU        0.268324    0.533103    0.733289     0.007504
AU3693   AU        0.272090    0.564129    0.700848     0.007504
AU3694   AU        0.306899    0.530561    0.702115     0.007504
PD3695   PD        0.306768    0.561842    0.738152     0.005394
AU3696   AU        0.343781    0.533677    0.737033     0.007504
AU3697   AU        0.341649    0.563990    0.701927     0.007504
AU3698   AU        0.377750    0.531707    0.701061     0.007504
AU3699   AU        0.378624    0.565714    0.734572     0.007504
PD3700   PD        0.413908    0.529131    0.732619     0.005394
PD3701   PD        0.415612    0.564098    0.701811     0.005394
PD3702   PD        0.449729    0.526633    0.702393     0.005394
PD3703   PD        0.448505    0.562400    0.731257     0.005394
AU3704   AU        0.483746    0.528314    0.735215     0.007504
PD3705   PD        0.484789    0.560114    0.699425     0.005394
PD3706   PD        0.519313    0.527051    0.700630     0.005394
PD3707   PD        0.516069    0.563085    0.735741     0.005394
PD3708   PD        0.552743    0.531384    0.733795     0.005394
PD3709   PD        0.555095    0.566543    0.702615     0.005394
PD3710   PD        0.589348    0.529737    0.700459     0.005394
PD3711   PD        0.591265    0.564620    0.732556     0.005394
PD3712   PD        0.623424    0.532147    0.732920     0.005394
AU3713   AU        0.625588    0.563830    0.699121     0.007504
AU3714   AU        0.660924    0.530420    0.699457     0.007504
PD3715   PD        0.659831    0.562434    0.733093     0.005394
AU3716   AU        0.694706    0.530300    0.734702     0.007504
PD3717   PD        0.696744    0.563639    0.698601     0.005394
PD3718   PD        0.732867    0.528518    0.703517     0.005394
PD3719   PD        0.161163    0.596030    0.704918     0.005394
PD3720   PD        0.200144    0.596586    0.731335     0.005394
PD3721   PD        0.202434    0.625507    0.704618     0.005394
PD3722   PD        0.235758    0.595485    0.699589     0.005394
PD3723   PD        0.237198    0.626776    0.736699     0.005394
AU3724   AU        0.271153    0.595477    0.734410     0.007504
AU3725   AU        0.270502    0.628051    0.701872     0.007504
AU3726   AU        0.306570    0.595327    0.699825     0.007504
PD3727   PD        0.306880    0.627052    0.732275     0.005394
PD3728   PD        0.340931    0.596845    0.736061     0.005394
PD3729   PD        0.339177    0.628705    0.702507     0.005394
PD3730   PD        0.378350    0.595955    0.700500     0.005394
AU3731   AU        0.377308    0.626365    0.735529     0.007504
PD3732   PD        0.413544    0.596420    0.732784     0.005394
AU3733   AU        0.412479    0.630301    0.700824     0.007504
AU3734   AU        0.447625    0.596571    0.699861     0.007504
AU3735   AU        0.448026    0.628891    0.733008     0.007504
AU3736   AU        0.483286    0.594826    0.733249     0.007504
AU3737   AU        0.481740    0.628640    0.701358     0.007504
PD3738   PD        0.517164    0.597550    0.700488     0.005394
PD3739   PD        0.519917    0.630931    0.731325     0.005394
AU3740   AU        0.553727    0.597327    0.733117     0.007504
PD3741   PD        0.555881    0.627040    0.701061     0.005394
PD3742   PD        0.590578    0.596757    0.703049     0.005394
PD3743   PD        0.590702    0.627745    0.734275     0.005394
PD3744   PD        0.625532    0.595661    0.734661     0.005394
PD3745   PD        0.628204    0.627550    0.700668     0.005394
PD3746   PD        0.661700    0.595036    0.699978     0.005394
PD3747   PD        0.660442    0.628830    0.734300     0.005394
PD3748   PD        0.731478    0.563890    0.734391     0.005394
PD3749   PD        0.696045    0.628352    0.700254     0.005394
PD3750   PD        0.729934    0.598161    0.702666     0.005394
PD3751   PD        0.237717    0.660906    0.700910     0.005394
PD3752   PD        0.271510    0.657891    0.733668     0.005394
PD3753   PD        0.266823    0.696658    0.705446     0.005394
PD3754   PD        0.305618    0.662147    0.700895     0.005394
PD3755   PD        0.302130    0.695077    0.735261     0.005394
PD3756   PD        0.344727    0.660039    0.736723     0.005394
PD3757   PD        0.346453    0.694962    0.707820     0.005394
PD3758   PD        0.375476    0.660083    0.701896     0.005394
PD3759   PD        0.377614    0.696063    0.734784     0.005394
AU3760   AU        0.410951    0.661206    0.733237     0.007504
PD3761   PD        0.412509    0.693965    0.703645     0.005394
PD3762   PD        0.449531    0.661981    0.701447     0.005394
AU3763   AU        0.449595    0.695559    0.735797     0.007504
AU3764   AU        0.482345    0.662688    0.735134     0.007504
AU3765   AU        0.485725    0.694549    0.701742     0.007504
PD3766   PD        0.521992    0.662182    0.701695     0.005394
PD3767   PD        0.515730    0.697273    0.738195     0.005394
PD3768   PD        0.554612    0.662140    0.732078     0.005394
PD3769   PD        0.552104    0.696235    0.701761     0.005394
PD3770   PD        0.593386    0.661334    0.700761     0.005394
PD3771   PD        0.635766    0.756457    0.771594     0.005394
PD3772   PD        0.624079    0.662241    0.735030     0.005394
PD3773   PD        0.624226    0.697036    0.701198     0.005394
AU3774   AU        0.660547    0.661744    0.702128     0.007504
PD3775   PD        0.264131    0.734972    0.732597     0.005394
PD3776   PD        0.378076    0.730054    0.702084     0.005394
AU3777   AU        0.414007    0.728161    0.734510     0.007504
AU3778   AU        0.410193    0.760033    0.699977     0.007504
AU3779   AU        0.449153    0.726382    0.701066     0.007504
PD3780   PD        0.481799    0.731228    0.736780     0.005394
PD3781   PD        0.481813    0.763620    0.698802     0.005394
AU3782   AU        0.514692    0.730182    0.704066     0.007504
PD3783   PD        0.666732    0.726968    0.702788     0.005394
PD3784   PD        0.421605    0.185536    0.795826     0.005394
PD3785   PD        0.481648    0.230607    0.768191     0.005394
PD3786   PD        0.267750    0.300595    0.767352     0.005394
AU3787   AU        0.340495    0.297335    0.768732     0.007504
PD3788   PD        0.378668    0.264906    0.768646     0.005394
PD3789   PD        0.374369    0.297689    0.801599     0.005394
AU3790   AU        0.411020    0.299592    0.767998     0.007504
PD3791   PD        0.442158    0.264385    0.762880     0.005394
PD3792   PD        0.447289    0.296716    0.796111     0.005394
AU3793   AU        0.480995    0.297635    0.768112     0.007504
PD3794   PD        0.513932    0.262552    0.767836     0.005394
PD3795   PD        0.514482    0.295810    0.797968     0.005394
PD3796   PD        0.551556    0.262594    0.798154     0.005394
PD3797   PD        0.624900    0.293141    0.768347     0.005394
AU3798   AU        0.269523    0.364862    0.766080     0.007504
AU3799   AU        0.305738    0.329173    0.768147     0.007504
PD3800   PD        0.305999    0.366573    0.804051     0.005394
AU3801   AU        0.339184    0.332193    0.802357     0.007504
PD3802   PD        0.335971    0.365807    0.768658     0.005394
AU3803   AU        0.373790    0.331435    0.768896     0.007504
AU3804   AU        0.375205    0.364260    0.799484     0.007504
AU3805   AU        0.411911    0.332006    0.802029     0.007504
PD3806   PD        0.412009    0.366094    0.766253     0.005394
AU3807   AU        0.445540    0.331962    0.767789     0.007504
PD3808   PD        0.447472    0.364505    0.802288     0.005394
AU3809   AU        0.482430    0.332993    0.800443     0.007504
AU3810   AU        0.482394    0.363925    0.767733     0.007504
AU3811   AU        0.517504    0.331978    0.769498     0.007504
PD3812   PD        0.519256    0.362812    0.800404     0.005394
PD3813   PD        0.517299    0.327907    0.835408     0.005394
AU3814   AU        0.552317    0.364234    0.768281     0.007504
PD3815   PD        0.589851    0.330333    0.766804     0.005394
AU3816   AU        0.587147    0.363353    0.802041     0.007504
AU3817   AU        0.625506    0.361700    0.767993     0.007504
AU3818   AU        0.200074    0.431189    0.765679     0.007504
PD3819   PD        0.235211    0.399064    0.767076     0.005394
PD3820   PD        0.268831    0.398773    0.795819     0.005394
PD3821   PD        0.268717    0.430807    0.766523     0.005394
PD3822   PD        0.304204    0.395862    0.766487     0.005394
PD3823   PD        0.305065    0.433628    0.801361     0.005394
AU3824   AU        0.342129    0.397645    0.799209     0.007504
AU3825   AU        0.341495    0.429761    0.767927     0.007504
AU3826   AU        0.377100    0.397164    0.765944     0.007504
AU3827   AU        0.375429    0.428909    0.799473     0.007504
AU3828   AU        0.411961    0.397216    0.800640     0.007504
PD3829   PD        0.414639    0.428493    0.768345     0.005394
AU3830   AU        0.448538    0.399371    0.768251     0.007504
PD3831   PD        0.447295    0.431706    0.799511     0.005394
AU3832   AU        0.484561    0.396890    0.798711     0.007504
AU3833   AU        0.485159    0.430635    0.767257     0.007504
AU3834   AU        0.520096    0.396935    0.767699     0.007504
AU3835   AU        0.519177    0.431278    0.798960     0.007504
PD3836   PD        0.592723    0.356780    0.861641     0.005394
PD3837   PD        0.552914    0.431169    0.767468     0.005394
AU3838   AU        0.588362    0.396723    0.767842     0.007504
PD3839   PD        0.588168    0.431301    0.801376     0.005394
PD3840   PD        0.621692    0.397268    0.802547     0.005394
PD3841   PD        0.620781    0.431174    0.769930     0.005394
PD3842   PD        0.660794    0.399112    0.769051     0.005394
PD3843   PD        0.702115    0.426966    0.766554     0.005394
PD3844   PD        0.196498    0.537520    0.785720     0.005394
PD3845   PD        0.236193    0.463490    0.768317     0.005394
PD3846   PD        0.243236    0.460228    0.849848     0.005394
AU3847   AU        0.269322    0.496604    0.768100     0.007504
PD3848   PD        0.308211    0.463208    0.767547     0.005394
PD3849   PD        0.308595    0.499690    0.800708     0.005394
PD3850   PD        0.342967    0.463065    0.799233     0.005394
PD3851   PD        0.344764    0.497101    0.765365     0.005394
AU3852   AU        0.378498    0.462148    0.767826     0.007504
PD3853   PD        0.375363    0.497167    0.798949     0.005394
PD3854   PD        0.413585    0.462162    0.800169     0.005394
AU3855   AU        0.411034    0.494998    0.766400     0.007504
AU3856   AU        0.448650    0.462811    0.767039     0.007504
PD3857   PD        0.450040    0.497125    0.796987     0.005394
PD3858   PD        0.484730    0.463154    0.801842     0.005394
PD3859   PD        0.480914    0.495913    0.770342     0.005394
PD3860   PD        0.519253    0.465216    0.766168     0.005394
AU3861   AU        0.519532    0.497984    0.797442     0.007504
AU3862   AU        0.552083    0.467233    0.799226     0.007504
AU3863   AU        0.553793    0.497999    0.765551     0.007504
AU3864   AU        0.588564    0.464182    0.766296     0.007504
PD3865   PD        0.588514    0.498764    0.798031     0.005394
PD3866   PD        0.622733    0.464367    0.800680     0.005394
AU3867   AU        0.628021    0.498659    0.765171     0.007504
PD3868   PD        0.661020    0.463257    0.769880     0.005394
PD3869   PD        0.767760    0.463637    0.734997     0.005394
PD3870   PD        0.232735    0.530071    0.767222     0.005394
PD3871   PD        0.233655    0.598970    0.837799     0.005394
AU3872   AU        0.272728    0.563523    0.767966     0.007504
PD3873   PD        0.305990    0.528921    0.765340     0.005394
PD3874   PD        0.307851    0.599437    0.834029     0.005394
PD3875   PD        0.346067    0.529698    0.797593     0.005394
PD3876   PD        0.342977    0.564679    0.767516     0.005394
PD3877   PD        0.378976    0.531631    0.768999     0.005394
PD3878   PD        0.379293    0.560409    0.802334     0.005394
AU3879   AU        0.414487    0.530797    0.799492     0.007504
AU3880   AU        0.413130    0.564255    0.766103     0.007504
PD3881   PD        0.445747    0.530538    0.766096     0.005394
AU3882   AU        0.448903    0.562283    0.800989     0.007504
PD3883   PD        0.482920    0.528619    0.797051     0.005394
AU3884   AU        0.482278    0.562099    0.766519     0.007504
AU3885   AU        0.518545    0.530758    0.767535     0.007504
AU3886   AU        0.517410    0.562771    0.797887     0.007504
AU3887   AU        0.552830    0.529739    0.800479     0.007504
PD3888   PD        0.552995    0.563279    0.766676     0.005394
AU3889   AU        0.590194    0.531304    0.767522     0.007504
PD3890   PD        0.588581    0.564157    0.799462     0.005394
PD3891   PD        0.625188    0.528827    0.798339     0.005394
PD3892   PD        0.628027    0.564309    0.768201     0.005394
PD3893   PD        0.694530    0.563383    0.772107     0.005394
PD3894   PD        0.270094    0.626701    0.769915     0.005394
AU3895   AU        0.305061    0.595445    0.768867     0.007504
PD3896   PD        0.341836    0.597759    0.802554     0.005394
PD3897   PD        0.339953    0.629382    0.770566     0.005394
PD3898   PD        0.378144    0.596330    0.769447     0.005394
PD3899   PD        0.345164    0.632082    0.838202     0.005394
PD3900   PD        0.412443    0.595510    0.800971     0.005394
PD3901   PD        0.415556    0.625745    0.766245     0.005394
PD3902   PD        0.451556    0.595736    0.769511     0.005394
PD3903   PD        0.451376    0.627796    0.798237     0.005394
PD3904   PD        0.486358    0.596228    0.800771     0.005394
PD3905   PD        0.484013    0.630144    0.766821     0.005394
PD3906   PD        0.516524    0.598634    0.762919     0.005394
PD3907   PD        0.521080    0.628555    0.796876     0.005394
PD3908   PD        0.553793    0.592867    0.799525     0.005394
PD3909   PD        0.586943    0.626705    0.798149     0.005394
AU3910   AU        0.587248    0.594078    0.766327     0.007504
PD3911   PD        0.622339    0.627480    0.774594     0.005394
PD3912   PD        0.378723    0.660091    0.769990     0.005394
AU3913   AU        0.412559    0.695217    0.765404     0.007504
AU3914   AU        0.447144    0.663301    0.767876     0.007504
PD3915   PD        0.447273    0.729196    0.768561     0.005394
PD3916   PD        0.522186    0.660156    0.765303     0.005394
PD3917   PD        0.446065    0.424647    0.868958     0.005394
PD3918   PD        0.488931    0.397120    0.866571     0.005394
AU3919   AU        0.483736    0.427637    0.832698     0.007504
PD3920   PD        0.378789    0.461710    0.834194     0.005394
PD3921   PD        0.413686    0.496004    0.831215     0.005394
PD3922   PD        0.447630    0.459471    0.832865     0.005394
PD3923   PD        0.481406    0.494010    0.835997     0.005394
PD3924   PD        0.516858    0.460961    0.833403     0.005394
PD3925   PD        0.447935    0.529260    0.832614     0.005394
