data_00001
_audit_creation_method   'DISCUS'

_data_chemical_name_common 'Pd.cell: Pearson 85'

_cell_length_a             57.1046
_cell_length_b             57.1046
_cell_length_c             53.0257
_cell_angle_alpha     90.0000
_cell_angle_beta      90.0000
_cell_angle_gamma     90.0000

_symmetry_space_group_name_H-M   'P1              '

loop_
_atom_site_label
_atom_site_symbol
_atom_site_fract_x
_atom_site_fract_y
_atom_site_fract_z
_atom_site_u_iso_or_equiv
NI1   NI        0.344247    0.234912    0.039532     0.004307
NI2   NI        0.435046    0.264007    0.043026     0.004307
NI3   NI        0.481393    0.258578    0.016317     0.004307
NI4   NI        0.297210    0.331397    0.044259     0.004307
NI5   NI        0.333277    0.313203    0.028940     0.004307
NI6   NI        0.361639    0.329403    0.048690     0.004307
PD7   PD        0.400002    0.298081    0.041731     0.005394
NI8   NI        0.436838    0.321323    0.019421     0.004307
PD9   PD        0.469376    0.296678    0.043014     0.005394
PD10   PD        0.504675    0.334068    0.043057     0.005394
PD11   PD        0.538345    0.296801    0.042965     0.005394
PD12   PD        0.570443    0.332558    0.043923     0.005394
NI13   NI        0.269090    0.369612    0.044354     0.004307
PD14   PD        0.295216    0.398740    0.044724     0.005394
PD15   PD        0.330782    0.364596    0.043338     0.005394
PD16   PD        0.366274    0.399874    0.043780     0.005394
NI17   NI        0.422702    0.354699    0.029629     0.004307
NI18   NI        0.401919    0.399517    0.005889     0.004307
NI19   NI        0.442871    0.375422    0.000769     0.004307
PD20   PD        0.435681    0.401344    0.043381     0.005394
PD21   PD        0.469219    0.365106    0.043832     0.005394
NI22   NI        0.469181    0.402809    0.006822     0.004307
NI23   NI        0.526155    0.410140    0.058719     0.004307
PD24   PD        0.538708    0.368384    0.042368     0.005394
NI25   NI        0.540881    0.392319    0.032777     0.004307
NI26   NI        0.624643    0.347658    0.034127     0.004307
NI27   NI        0.262957    0.437003    0.045974     0.004307
PD28   PD        0.295607    0.468964    0.044494     0.005394
NI29   NI        0.321209    0.422151    0.020790     0.004307
NI30   NI        0.366701    0.436115    0.007403     0.004307
PD31   PD        0.365678    0.467901    0.043426     0.005394
PD32   PD        0.399597    0.433672    0.041429     0.005394
PD33   PD        0.399976    0.469207    0.007150     0.005394
NI34   NI        0.435650    0.433361    0.005657     0.004307
NI35   NI        0.445949    0.446190    0.049262     0.004307
PD36   PD        0.469375    0.436544    0.042924     0.005394
NI37   NI        0.473671    0.452815    0.007424     0.004307
NI38   NI        0.504294    0.437527    0.009115     0.004307
PD39   PD        0.503887    0.468291    0.043202     0.005394
NI40   NI        0.521632    0.465602    0.012831     0.004307
NI41   NI        0.582158    0.462637    0.019002     0.004307
NI42   NI        0.607519    0.433802    0.044899     0.004307
NI43   NI        0.262027    0.502292    0.045589     0.004307
NI44   NI        0.299791    0.538773    0.048357     0.004307
PD45   PD        0.331018    0.502863    0.044769     0.005394
PD46   PD        0.364425    0.536634    0.047572     0.005394
PD47   PD        0.401362    0.503561    0.043773     0.005394
NI48   NI        0.432764    0.505737    0.010098     0.004307
NI49   NI        0.436696    0.538602    0.047658     0.004307
NI50   NI        0.461212    0.490120    0.036985     0.004307
NI51   NI        0.502659    0.537405    0.045336     0.004307
NI52   NI        0.536613    0.501590    0.044345     0.004307
NI53   NI        0.563424    0.517256    0.027511     0.004307
NI54   NI        0.609394    0.495012    0.041069     0.004307
NI55   NI        0.329632    0.572453    0.049029     0.004307
NI56   NI        0.363928    0.605554    0.048384     0.004307
NI57   NI        0.399653    0.571911    0.046471     0.004307
NI58   NI        0.434051    0.607469    0.048225     0.004307
NI59   NI        0.468285    0.574143    0.048587     0.004307
NI60   NI        0.528515    0.626276    0.035833     0.004307
NI61   NI        0.510209    0.581750    0.025219     0.004307
NI62   NI        0.282184    0.169704    0.111236     0.004307
NI63   NI        0.386683    0.184097    0.095944     0.004307
PD64   PD        0.401144    0.159403    0.117393     0.005394
NI65   NI        0.403061    0.195247    0.080826     0.004307
PD66   PD        0.436353    0.194170    0.116386     0.005394
NI67   NI        0.469853    0.159735    0.117878     0.004307
NI68   NI        0.469427    0.175317    0.088913     0.004307
PD69   PD        0.503746    0.194204    0.117444     0.005394
PD70   PD        0.573671    0.194318    0.117528     0.005394
PD71   PD        0.228438    0.262322    0.117041     0.005394
NI72   NI        0.261000    0.247522    0.088294     0.004307
NI73   NI        0.253098    0.251252    0.103537     0.004307
PD74   PD        0.298249    0.260419    0.115103     0.005394
PD75   PD        0.333101    0.229017    0.114376     0.005394
PD76   PD        0.331659    0.262544    0.078585     0.005394
PD77   PD        0.368090    0.227113    0.078574     0.005394
PD78   PD        0.368128    0.262241    0.116487     0.005394
NI79   NI        0.396747    0.202215    0.087368     0.004307
PD80   PD        0.401268    0.262014    0.077974     0.005394
PD81   PD        0.436495    0.229068    0.080297     0.005394
PD82   PD        0.434536    0.261439    0.116621     0.005394
PD83   PD        0.469202    0.228943    0.118526     0.005394
NI84   NI        0.470466    0.250790    0.052679     0.004307
PD85   PD        0.504978    0.229223    0.080307     0.005394
PD86   PD        0.503798    0.264458    0.117142     0.005394
NI87   NI        0.557156    0.227889    0.091075     0.004307
PD88   PD        0.538650    0.262329    0.080760     0.005394
PD89   PD        0.573062    0.261956    0.116090     0.005394
NI90   NI        0.641581    0.194270    0.119671     0.004307
NI91   NI        0.607151    0.262326    0.081100     0.004307
NI92   NI        0.663984    0.250787    0.103053     0.004307
NI93   NI        0.195444    0.296490    0.117978     0.004307
PD94   PD        0.229868    0.330870    0.116997     0.005394
NI95   NI        0.234517    0.289211    0.125651     0.004307
PD96   PD        0.264497    0.331112    0.079701     0.005394
PD97   PD        0.297890    0.298005    0.080003     0.005394
NI98   NI        0.277032    0.323722    0.094656     0.004307
PD99   PD        0.331853    0.296847    0.116635     0.005394
NI100   NI        0.320099    0.306716    0.078960     0.004307
PD101   PD        0.367545    0.296669    0.078673     0.005394
PD102   PD        0.365992    0.330296    0.116669     0.005394
PD103   PD        0.400367    0.296348    0.116817     0.005394
PD104   PD        0.400759    0.331361    0.080335     0.005394
PD105   PD        0.436190    0.296970    0.080089     0.005394
PD106   PD        0.434084    0.331748    0.116160     0.005394
PD107   PD        0.469824    0.297623    0.116647     0.005394
PD108   PD        0.469506    0.331916    0.079413     0.005394
PD109   PD        0.502590    0.296800    0.079811     0.005394
NI110   NI        0.524172    0.330179    0.122079     0.004307
NI111   NI        0.525493    0.304943    0.092070     0.004307
NI112   NI        0.546501    0.305303    0.065934     0.004307
PD113   PD        0.571684    0.298149    0.078597     0.005394
PD114   PD        0.572459    0.330811    0.118525     0.005394
NI115   NI        0.640912    0.297373    0.081440     0.004307
NI116   NI        0.605054    0.331773    0.080226     0.004307
PD117   PD        0.641183    0.329529    0.117182     0.005394
NI118   NI        0.675892    0.297209    0.119409     0.004307
NI119   NI        0.161074    0.401807    0.121420     0.004307
PD120   PD        0.194379    0.366876    0.120851     0.005394
NI121   NI        0.178999    0.381603    0.071613     0.004307
NI122   NI        0.234199    0.346242    0.066026     0.004307
PD123   PD        0.229380    0.399168    0.119058     0.005394
PD124   PD        0.264005    0.366017    0.116825     0.005394
PD125   PD        0.263148    0.400040    0.081983     0.005394
PD126   PD        0.297975    0.365842    0.081437     0.005394
PD127   PD        0.298289    0.399779    0.117977     0.005394
PD128   PD        0.332744    0.364391    0.116601     0.005394
PD129   PD        0.332333    0.399145    0.078899     0.005394
PD130   PD        0.366635    0.364463    0.078302     0.005394
PD131   PD        0.366270    0.398310    0.116291     0.005394
PD132   PD        0.401647    0.365382    0.116371     0.005394
PD133   PD        0.400207    0.400540    0.079285     0.005394
PD134   PD        0.436475    0.365341    0.078144     0.005394
PD135   PD        0.434603    0.398594    0.116819     0.005394
PD136   PD        0.470133    0.366746    0.117304     0.005394
NI137   NI        0.463528    0.397166    0.066048     0.004307
PD138   PD        0.501582    0.367417    0.081680     0.005394
NI139   NI        0.496974    0.391031    0.102562     0.004307
PD140   PD        0.539394    0.365234    0.117013     0.005394
PD141   PD        0.539142    0.399739    0.081905     0.005394
PD142   PD        0.572234    0.365463    0.082261     0.005394
PD143   PD        0.572201    0.398494    0.116356     0.005394
PD144   PD        0.606913    0.365419    0.117586     0.005394
PD145   PD        0.606061    0.401708    0.081860     0.005394
NI146   NI        0.641681    0.365294    0.081634     0.004307
NI147   NI        0.637530    0.403526    0.120304     0.004307
NI148   NI        0.675852    0.367231    0.120096     0.004307
NI149   NI        0.675622    0.402652    0.084220     0.004307
NI150   NI        0.709144    0.401169    0.118237     0.004307
NI151   NI        0.135465    0.451118    0.116740     0.004307
NI152   NI        0.166399    0.425196    0.108306     0.004307
NI153   NI        0.181303    0.451027    0.069051     0.004307
NI154   NI        0.205162    0.416564    0.077841     0.004307
PD155   PD        0.230828    0.469339    0.120656     0.005394
PD156   PD        0.263433    0.432439    0.119696     0.005394
PD157   PD        0.263091    0.468925    0.083491     0.005394
PD158   PD        0.298100    0.434633    0.079856     0.005394
PD159   PD        0.298963    0.467264    0.118738     0.005394
PD160   PD        0.332743    0.434277    0.116106     0.005394
PD161   PD        0.332608    0.469916    0.080964     0.005394
PD162   PD        0.364841    0.432503    0.079917     0.005394
PD163   PD        0.366276    0.467962    0.116640     0.005394
NI164   NI        0.387912    0.455847    0.102680     0.004307
PD165   PD        0.399685    0.468602    0.078935     0.005394
NI166   NI        0.400564    0.438767    0.049539     0.004307
PD167   PD        0.433629    0.467146    0.117678     0.005394
PD168   PD        0.467645    0.433578    0.117372     0.005394
PD169   PD        0.469847    0.468267    0.081576     0.005394
PD170   PD        0.504151    0.435409    0.081956     0.005394
PD171   PD        0.502285    0.469027    0.119135     0.005394
PD172   PD        0.536706    0.434691    0.118311     0.005394
PD173   PD        0.538229    0.470424    0.083730     0.005394
PD174   PD        0.572929    0.435328    0.081267     0.005394
NI175   NI        0.596709    0.476259    0.096448     0.004307
PD176   PD        0.606015    0.433931    0.120100     0.005394
NI177   NI        0.608406    0.467867    0.081284     0.004307
NI178   NI        0.641622    0.435019    0.083605     0.004307
PD179   PD        0.641413    0.467531    0.117709     0.005394
NI180   NI        0.675037    0.433063    0.120544     0.004307
NI181   NI        0.686482    0.495454    0.085802     0.004307
NI182   NI        0.709034    0.469719    0.122191     0.004307
NI183   NI        0.183165    0.534795    0.113513     0.004307
NI184   NI        0.220388    0.524910    0.077290     0.004307
PD185   PD        0.229547    0.536888    0.122440     0.005394
NI186   NI        0.290639    0.502731    0.107452     0.004307
PD187   PD        0.263628    0.537101    0.083981     0.005394
PD188   PD        0.297507    0.503795    0.081792     0.005394
PD189   PD        0.295394    0.537060    0.119320     0.005394
PD190   PD        0.331741    0.502385    0.119172     0.005394
PD191   PD        0.332330    0.537915    0.085938     0.005394
PD192   PD        0.366360    0.502783    0.079772     0.005394
PD193   PD        0.365213    0.536256    0.115384     0.005394
PD194   PD        0.400946    0.503112    0.117031     0.005394
NI195   NI        0.408036    0.570564    0.056095     0.004307
PD196   PD        0.433627    0.500385    0.080559     0.005394
PD197   PD        0.434405    0.536282    0.118473     0.005394
PD198   PD        0.468143    0.503137    0.120817     0.005394
NI199   NI        0.442688    0.537822    0.075157     0.004307
PD200   PD        0.503674    0.503876    0.081728     0.005394
PD201   PD        0.499879    0.538066    0.123294     0.005394
PD202   PD        0.537022    0.504165    0.119906     0.005394
NI203   NI        0.538230    0.537401    0.083773     0.004307
NI204   NI        0.608188    0.508163    0.061499     0.004307
PD205   PD        0.570398    0.537727    0.115716     0.005394
NI206   NI        0.607342    0.499673    0.115638     0.004307
NI207   NI        0.607936    0.540057    0.093149     0.004307
NI208   NI        0.641874    0.505099    0.086567     0.004307
NI209   NI        0.655264    0.550900    0.113706     0.004307
NI210   NI        0.689727    0.529667    0.112825     0.004307
NI211   NI        0.196061    0.571804    0.123339     0.004307
NI212   NI        0.215157    0.584457    0.097517     0.004307
PD213   PD        0.263113    0.571878    0.121487     0.005394
NI214   NI        0.253437    0.556693    0.097189     0.004307
PD215   PD        0.298049    0.571914    0.085863     0.005394
NI216   NI        0.295116    0.603804    0.118452     0.004307
PD217   PD        0.331648    0.571471    0.123038     0.005394
NI218   NI        0.300028    0.609438    0.050826     0.004307
PD219   PD        0.365786    0.572620    0.083270     0.005394
NI220   NI        0.373032    0.619430    0.098627     0.004307
NI221   NI        0.412775    0.561162    0.157008     0.004307
NI222   NI        0.400061    0.607277    0.083948     0.004307
PD223   PD        0.433103    0.571513    0.081993     0.005394
PD224   PD        0.432692    0.604657    0.122848     0.005394
PD225   PD        0.468386    0.570827    0.118063     0.005394
NI226   NI        0.469449    0.606153    0.081135     0.004307
NI227   NI        0.503665    0.572133    0.082366     0.004307
PD228   PD        0.501213    0.606758    0.120644     0.005394
PD229   PD        0.537286    0.573069    0.118585     0.005394
NI230   NI        0.535178    0.630302    0.093718     0.004307
NI231   NI        0.571073    0.569433    0.078843     0.004307
NI232   NI        0.576045    0.622260    0.108418     0.004307
NI233   NI        0.610211    0.595785    0.133229     0.004307
NI234   NI        0.598799    0.601686    0.088887     0.004307
NI235   NI        0.646555    0.595382    0.103610     0.004307
NI236   NI        0.673428    0.572582    0.122730     0.004307
NI237   NI        0.297156    0.640688    0.087699     0.004307
NI238   NI        0.298563    0.674846    0.125670     0.004307
NI239   NI        0.338435    0.662104    0.097777     0.004307
NI240   NI        0.333987    0.642811    0.052995     0.004307
PD241   PD        0.366012    0.674605    0.124791     0.005394
NI242   NI        0.407734    0.659161    0.138047     0.004307
NI243   NI        0.411734    0.668192    0.070809     0.004307
NI244   NI        0.434514    0.640165    0.088386     0.004307
NI245   NI        0.419936    0.679097    0.101609     0.004307
NI246   NI        0.486863    0.652215    0.112670     0.004307
NI247   NI        0.480242    0.650412    0.080161     0.004307
NI248   NI        0.520413    0.675099    0.081332     0.004307
NI249   NI        0.499395    0.673514    0.125048     0.004307
NI250   NI        0.533248    0.642174    0.123581     0.004307
NI251   NI        0.574782    0.672066    0.128701     0.004307
NI252   NI        0.618850    0.625225    0.106966     0.004307
NI253   NI        0.402989    0.706459    0.125072     0.004307
NI254   NI        0.468397    0.708872    0.123502     0.004307
NI255   NI        0.300290    0.125463    0.191744     0.004307
NI256   NI        0.377958    0.147542    0.178315     0.004307
NI257   NI        0.404136    0.090538    0.190973     0.004307
NI258   NI        0.406073    0.134136    0.136209     0.004307
PD259   PD        0.435784    0.125454    0.191009     0.005394
NI260   NI        0.469981    0.091317    0.192151     0.004307
NI261   NI        0.438556    0.119034    0.148805     0.004307
NI262   NI        0.504348    0.124789    0.191535     0.004307
NI263   NI        0.573844    0.127342    0.191082     0.004307
NI264   NI        0.231747    0.211051    0.189128     0.004307
NI265   NI        0.249875    0.144200    0.208753     0.004307
NI266   NI        0.253212    0.181355    0.177016     0.004307
NI267   NI        0.316080    0.179336    0.148335     0.004307
PD268   PD        0.297719    0.194170    0.188322     0.005394
PD269   PD        0.332252    0.159484    0.190956     0.005394
PD270   PD        0.333301    0.191831    0.153226     0.005394
PD271   PD        0.367956    0.158466    0.154245     0.005394
PD272   PD        0.366486    0.193248    0.191051     0.005394
NI273   NI        0.388625    0.151946    0.175041     0.004307
PD274   PD        0.400531    0.193523    0.152454     0.005394
NI275   NI        0.440135    0.161063    0.158391     0.004307
PD276   PD        0.435236    0.193893    0.188660     0.005394
PD277   PD        0.470338    0.159906    0.188866     0.005394
NI278   NI        0.472114    0.197885    0.159977     0.004307
NI279   NI        0.480983    0.141837    0.142439     0.004307
PD280   PD        0.503544    0.195297    0.191651     0.005394
NI281   NI        0.537411    0.159263    0.191779     0.004307
NI282   NI        0.534653    0.190690    0.155304     0.004307
NI283   NI        0.574118    0.159852    0.156246     0.004307
NI284   NI        0.574581    0.210046    0.202701     0.004307
NI285   NI        0.612135    0.134823    0.164669     0.004307
NI286   NI        0.605621    0.160892    0.118307     0.004307
NI287   NI        0.646150    0.202030    0.201217     0.004307
NI288   NI        0.162022    0.257355    0.193853     0.004307
PD289   PD        0.194727    0.225919    0.189504     0.005394
NI290   NI        0.195500    0.260874    0.153342     0.004307
NI291   NI        0.229940    0.229501    0.152468     0.004307
PD292   PD        0.228618    0.260609    0.190370     0.005394
NI293   NI        0.248565    0.225745    0.183862     0.004307
PD294   PD        0.264004    0.261269    0.151771     0.005394
PD295   PD        0.298602    0.226719    0.151217     0.005394
PD296   PD        0.298124    0.261413    0.187529     0.005394
PD297   PD        0.331148    0.226722    0.188874     0.005394
PD298   PD        0.333160    0.260662    0.153010     0.005394
PD299   PD        0.365829    0.228663    0.153084     0.005394
PD300   PD        0.367256    0.261601    0.189977     0.005394
PD301   PD        0.400578    0.227386    0.190307     0.005394
PD302   PD        0.401820    0.261596    0.152002     0.005394
PD303   PD        0.434767    0.227783    0.153704     0.005394
PD304   PD        0.435391    0.262463    0.190316     0.005394
PD305   PD        0.469422    0.227696    0.190396     0.005394
PD306   PD        0.470567    0.261410    0.152601     0.005394
PD307   PD        0.503765    0.229308    0.154615     0.005394
PD308   PD        0.503097    0.261909    0.190680     0.005394
PD309   PD        0.538527    0.228687    0.190163     0.005394
PD310   PD        0.537782    0.262501    0.153256     0.005394
PD311   PD        0.572473    0.229538    0.156153     0.005394
NI312   NI        0.584349    0.244530    0.202440     0.004307
PD313   PD        0.608102    0.228495    0.192430     0.005394
PD314   PD        0.605370    0.262371    0.155498     0.005394
NI315   NI        0.639991    0.228199    0.157193     0.004307
PD316   PD        0.641547    0.263882    0.191757     0.005394
NI317   NI        0.673404    0.228635    0.192495     0.004307
NI318   NI        0.679490    0.236867    0.127227     0.004307
NI319   NI        0.709141    0.265214    0.194937     0.004307
NI320   NI        0.126749    0.297306    0.190702     0.004307
NI321   NI        0.161695    0.297600    0.154959     0.004307
NI322   NI        0.150479    0.334758    0.214392     0.004307
PD323   PD        0.194326    0.292526    0.190950     0.005394
PD324   PD        0.196399    0.331610    0.155378     0.005394
PD325   PD        0.228123    0.293737    0.153608     0.005394
PD326   PD        0.229637    0.330837    0.192191     0.005394
NI327   NI        0.263563    0.286035    0.169301     0.004307
PD328   PD        0.263119    0.330108    0.154511     0.005394
PD329   PD        0.297899    0.295900    0.151343     0.005394
PD330   PD        0.297682    0.328804    0.189939     0.005394
PD331   PD        0.332267    0.295260    0.188480     0.005394
PD332   PD        0.332368    0.330048    0.152455     0.005394
PD333   PD        0.367647    0.296164    0.153140     0.005394
PD334   PD        0.366542    0.329273    0.188973     0.005394
PD335   PD        0.400994    0.296275    0.192262     0.005394
PD336   PD        0.400235    0.331123    0.154075     0.005394
NI337   NI        0.438865    0.282296    0.152803     0.004307
PD338   PD        0.434096    0.331089    0.191256     0.005394
PD339   PD        0.470214    0.295719    0.190034     0.005394
PD340   PD        0.468592    0.329830    0.152882     0.005394
PD341   PD        0.504521    0.296773    0.153810     0.005394
PD342   PD        0.503666    0.331671    0.189628     0.005394
PD343   PD        0.540414    0.297047    0.190205     0.005394
PD344   PD        0.538260    0.331570    0.152554     0.005394
PD345   PD        0.571541    0.296691    0.153302     0.005394
NI346   NI        0.558799    0.323238    0.176995     0.004307
NI347   NI        0.626873    0.307716    0.202309     0.004307
NI348   NI        0.628620    0.321877    0.165751     0.004307
PD349   PD        0.641450    0.297813    0.156310     0.005394
PD350   PD        0.639322    0.332558    0.190888     0.005394
PD351   PD        0.675317    0.298148    0.193409     0.005394
NI352   NI        0.678688    0.318108    0.148078     0.004307
NI353   NI        0.708978    0.289360    0.123873     0.004307
NI354   NI        0.702232    0.341322    0.189358     0.004307
NI355   NI        0.745195    0.300116    0.195271     0.004307
NI356   NI        0.057332    0.399690    0.159862     0.004307
NI357   NI        0.112061    0.360895    0.202275     0.004307
NI358   NI        0.104163    0.384216    0.154862     0.004307
NI359   NI        0.162162    0.365692    0.156374     0.004307
PD360   PD        0.163841    0.399496    0.194808     0.005394
PD361   PD        0.194536    0.365779    0.192895     0.005394
PD362   PD        0.197038    0.400660    0.156377     0.005394
PD363   PD        0.229598    0.365223    0.153611     0.005394
PD364   PD        0.229061    0.397888    0.193593     0.005394
PD365   PD        0.263572    0.365019    0.193245     0.005394
PD366   PD        0.265202    0.399243    0.156675     0.005394
PD367   PD        0.299001    0.364671    0.154208     0.005394
PD368   PD        0.297354    0.399257    0.192127     0.005394
PD369   PD        0.332611    0.362944    0.190205     0.005394
NI370   NI        0.327229    0.370923    0.120802     0.004307
PD371   PD        0.366893    0.363895    0.151429     0.005394
PD372   PD        0.344104    0.392359    0.189120     0.005394
PD373   PD        0.394236    0.385456    0.187957     0.005394
PD374   PD        0.399591    0.399816    0.154238     0.005394
PD375   PD        0.434131    0.364951    0.153776     0.005394
PD376   PD        0.434407    0.399585    0.189878     0.005394
PD377   PD        0.468004    0.364936    0.188609     0.005394
PD378   PD        0.469175    0.398732    0.152814     0.005394
NI379   NI        0.505941    0.354477    0.128054     0.004307
PD380   PD        0.503351    0.399261    0.190448     0.005394
PD381   PD        0.536406    0.365808    0.189894     0.005394
PD382   PD        0.538421    0.399305    0.153123     0.005394
NI383   NI        0.560164    0.375734    0.148535     0.004307
PD384   PD        0.572337    0.399634    0.190710     0.005394
PD385   PD        0.605952    0.366579    0.191074     0.005394
NI386   NI        0.622105    0.407218    0.136583     0.004307
PD387   PD        0.640940    0.366658    0.156389     0.005394
PD388   PD        0.639663    0.399189    0.191390     0.005394
NI389   NI        0.675010    0.381554    0.200232     0.004307
NI390   NI        0.676735    0.398989    0.156805     0.004307
NI391   NI        0.709207    0.367625    0.156046     0.004307
NI392   NI        0.729521    0.415021    0.200036     0.004307
NI393   NI        0.741886    0.368709    0.196472     0.004307
NI394   NI        0.777919    0.367438    0.157185     0.004307
NI395   NI        0.774948    0.403554    0.198928     0.004307
NI396   NI        0.097562    0.470259    0.192075     0.004307
NI397   NI        0.128841    0.435257    0.193743     0.004307
NI398   NI        0.123802    0.497534    0.123028     0.004307
PD399   PD        0.163846    0.434609    0.157617     0.005394
NI400   NI        0.163224    0.470650    0.193152     0.004307
PD401   PD        0.197056    0.432496    0.194379     0.005394
PD402   PD        0.196910    0.469600    0.157096     0.005394
PD403   PD        0.229618    0.434448    0.157830     0.005394
PD404   PD        0.231232    0.468064    0.194186     0.005394
PD405   PD        0.264931    0.441262    0.194216     0.005394
PD406   PD        0.263294    0.469408    0.155256     0.005394
PD407   PD        0.298369    0.432937    0.155284     0.005394
PD408   PD        0.304335    0.472180    0.202112     0.005394
PD409   PD        0.333059    0.433432    0.189652     0.005394
PD410   PD        0.332103    0.468521    0.153991     0.005394
PD411   PD        0.365775    0.433504    0.152568     0.005394
PD412   PD        0.366840    0.468404    0.190965     0.005394
PD413   PD        0.398835    0.433072    0.190898     0.005394
PD414   PD        0.411918    0.456355    0.127020     0.005394
PD415   PD        0.433797    0.434360    0.153662     0.005394
PD416   PD        0.434203    0.467842    0.190410     0.005394
PD417   PD        0.467920    0.433133    0.189447     0.005394
PD418   PD        0.469592    0.467088    0.152777     0.005394
PD419   PD        0.502810    0.434262    0.154012     0.005394
PD420   PD        0.515818    0.464366    0.191691     0.005394
PD421   PD        0.547106    0.419846    0.165516     0.005394
NI422   NI        0.540826    0.459545    0.137401     0.004307
PD423   PD        0.570982    0.435263    0.152150     0.005394
PD424   PD        0.589779    0.476979    0.195785     0.005394
PD425   PD        0.606293    0.434076    0.190418     0.005394
NI426   NI        0.613706    0.484749    0.151151     0.004307
NI427   NI        0.645523    0.437794    0.159965     0.004307
PD428   PD        0.636463    0.469321    0.196075     0.005394
NI429   NI        0.678052    0.430615    0.195526     0.004307
NI430   NI        0.658383    0.472079    0.140832     0.004307
NI431   NI        0.707301    0.435539    0.157831     0.004307
NI432   NI        0.731138    0.474474    0.210450     0.004307
NI433   NI        0.731371    0.451258    0.197726     0.004307
NI434   NI        0.754003    0.460228    0.135522     0.004307
NI435   NI        0.777261    0.460705    0.201135     0.004307
NI436   NI        0.147005    0.492038    0.182979     0.004307
NI437   NI        0.128900    0.506239    0.121136     0.004307
PD438   PD        0.161884    0.536071    0.195283     0.005394
NI439   NI        0.179119    0.524424    0.202216     0.004307
PD440   PD        0.198132    0.538320    0.160566     0.005394
PD441   PD        0.229936    0.499362    0.159804     0.005394
NI442   NI        0.233781    0.562454    0.183586     0.004307
PD443   PD        0.265812    0.501384    0.194575     0.005394
NI444   NI        0.279025    0.539004    0.132621     0.004307
PD445   PD        0.299491    0.501479    0.156572     0.005394
PD446   PD        0.299727    0.535695    0.194152     0.005394
PD447   PD        0.318883    0.518483    0.199232     0.005394
PD448   PD        0.330633    0.535489    0.154035     0.005394
PD449   PD        0.370136    0.514691    0.172746     0.005394
PD450   PD        0.364153    0.534581    0.193377     0.005394
PD451   PD        0.400540    0.501832    0.189513     0.005394
PD452   PD        0.398360    0.537884    0.152314     0.005394
PD453   PD        0.436288    0.503240    0.158581     0.005394
PD454   PD        0.430701    0.534314    0.196818     0.005394
PD455   PD        0.473170    0.512694    0.203633     0.005394
PD456   PD        0.468348    0.535839    0.159671     0.005394
NI457   NI        0.530047    0.506409    0.137766     0.004307
PD458   PD        0.506650    0.548323    0.192244     0.005394
PD459   PD        0.537939    0.502341    0.193008     0.005394
PD460   PD        0.535329    0.538237    0.158484     0.005394
PD461   PD        0.570124    0.502209    0.156559     0.005394
NI462   NI        0.573421    0.552910    0.163852     0.004307
PD463   PD        0.601405    0.503945    0.195233     0.005394
NI464   NI        0.600162    0.560122    0.168791     0.004307
NI465   NI        0.651861    0.503429    0.173862     0.004307
PD466   PD        0.636351    0.539468    0.193856     0.005394
NI467   NI        0.704340    0.501799    0.168967     0.004307
NI468   NI        0.672606    0.542472    0.161209     0.004307
NI469   NI        0.706461    0.505492    0.160029     0.004307
NI470   NI        0.717931    0.557312    0.171325     0.004307
NI471   NI        0.737880    0.505637    0.199865     0.004307
NI472   NI        0.127093    0.571886    0.195714     0.004307
NI473   NI        0.128845    0.572783    0.119152     0.004307
NI474   NI        0.166024    0.608007    0.197356     0.004307
NI475   NI        0.165240    0.608114    0.195955     0.004307
NI476   NI        0.180092    0.613298    0.163872     0.004307
PD477   PD        0.231807    0.570490    0.159936     0.005394
NI478   NI        0.219804    0.597652    0.191471     0.004307
PD479   PD        0.264290    0.570779    0.196753     0.005394
PD480   PD        0.266206    0.605634    0.160308     0.005394
PD481   PD        0.298633    0.570311    0.158292     0.005394
PD482   PD        0.299558    0.607289    0.199433     0.005394
PD483   PD        0.331309    0.570415    0.194780     0.005394
PD484   PD        0.332003    0.604431    0.161575     0.005394
PD485   PD        0.366584    0.569895    0.157305     0.005394
PD486   PD        0.367390    0.604667    0.198978     0.005394
PD487   PD        0.396827    0.546806    0.203163     0.005394
NI488   NI        0.399417    0.605973    0.151062     0.004307
PD489   PD        0.433497    0.569663    0.158755     0.005394
PD490   PD        0.431448    0.603660    0.196206     0.005394
PD491   PD        0.473779    0.579704    0.202012     0.005394
NI492   NI        0.474307    0.624883    0.180437     0.004307
NI493   NI        0.512631    0.563640    0.143477     0.004307
NI494   NI        0.512306    0.599975    0.183405     0.004307
NI495   NI        0.539132    0.581065    0.181827     0.004307
NI496   NI        0.552329    0.612271    0.157778     0.004307
NI497   NI        0.573869    0.570681    0.149825     0.004307
NI498   NI        0.575385    0.605222    0.187111     0.004307
NI499   NI        0.610944    0.572781    0.180549     0.004307
NI500   NI        0.605124    0.607021    0.151994     0.004307
NI501   NI        0.638316    0.573378    0.159568     0.004307
NI502   NI        0.645100    0.628034    0.194135     0.004307
NI503   NI        0.677590    0.595280    0.187991     0.004307
NI504   NI        0.671382    0.606878    0.154387     0.004307
NI505   NI        0.706064    0.573627    0.162162     0.004307
NI506   NI        0.703874    0.605033    0.203869     0.004307
NI507   NI        0.765285    0.559748    0.178864     0.004307
NI508   NI        0.196630    0.639984    0.197758     0.004307
NI509   NI        0.259025    0.632931    0.143041     0.004307
NI510   NI        0.229028    0.674486    0.191066     0.004307
PD511   PD        0.262574    0.640187    0.195443     0.005394
NI512   NI        0.265366    0.675960    0.158150     0.004307
PD513   PD        0.297626    0.637144    0.158896     0.005394
PD514   PD        0.297739    0.673508    0.195303     0.005394
PD515   PD        0.333794    0.639341    0.198390     0.005394
NI516   NI        0.324307    0.670639    0.141443     0.004307
PD517   PD        0.366719    0.638301    0.160556     0.005394
NI518   NI        0.340208    0.684418    0.184632     0.004307
PD519   PD        0.395649    0.637613    0.195794     0.005394
NI520   NI        0.384865    0.696406    0.168564     0.004307
NI521   NI        0.432509    0.639221    0.158581     0.004307
NI522   NI        0.423537    0.667770    0.172093     0.004307
NI523   NI        0.470785    0.655162    0.182791     0.004307
NI524   NI        0.490074    0.685952    0.148070     0.004307
NI525   NI        0.501160    0.640656    0.159383     0.004307
NI526   NI        0.500647    0.674335    0.193928     0.004307
PD527   PD        0.534074    0.642206    0.201375     0.005394
NI528   NI        0.535503    0.673241    0.161802     0.004307
NI529   NI        0.566370    0.618023    0.177197     0.004307
NI530   NI        0.569485    0.673525    0.198733     0.004307
NI531   NI        0.606312    0.640510    0.191615     0.004307
NI532   NI        0.602435    0.674731    0.156979     0.004307
NI533   NI        0.629171    0.636549    0.147035     0.004307
NI534   NI        0.651581    0.693147    0.208052     0.004307
NI535   NI        0.674217    0.641387    0.195037     0.004307
NI536   NI        0.264010    0.742026    0.157905     0.004307
NI537   NI        0.299429    0.708787    0.161698     0.004307
NI538   NI        0.289642    0.742451    0.193667     0.004307
NI539   NI        0.333779    0.722868    0.197136     0.004307
NI540   NI        0.366860    0.709672    0.160184     0.004307
NI541   NI        0.362596    0.741305    0.194484     0.004307
NI542   NI        0.414992    0.741778    0.196784     0.004307
NI543   NI        0.399414    0.741707    0.160639     0.004307
NI544   NI        0.435010    0.706610    0.163988     0.004307
NI545   NI        0.453533    0.766887    0.202488     0.004307
NI546   NI        0.455974    0.715184    0.210970     0.004307
NI547   NI        0.470273    0.743302    0.161550     0.004307
NI548   NI        0.497120    0.707655    0.159891     0.004307
NI549   NI        0.534832    0.787463    0.195851     0.004307
NI550   NI        0.516234    0.713668    0.175148     0.004307
NI551   NI        0.569344    0.707280    0.157050     0.004307
NI552   NI        0.596385    0.730811    0.188227     0.004307
NI553   NI        0.596443    0.737679    0.181276     0.004307
NI554   NI        0.406908    0.781217    0.179792     0.004307
NI555   NI        0.468826    0.779384    0.195099     0.004307
NI556   NI        0.367958    0.056289    0.265467     0.004307
NI557   NI        0.453924    0.040125    0.237776     0.004307
NI558   NI        0.506478    0.058811    0.264702     0.004307
NI559   NI        0.231224    0.123973    0.265526     0.004307
NI560   NI        0.265709    0.089835    0.262558     0.004307
NI561   NI        0.260231    0.095246    0.205024     0.004307
NI562   NI        0.303481    0.089184    0.292314     0.004307
PD563   PD        0.334371    0.090914    0.265916     0.005394
PD564   PD        0.334821    0.125463    0.227766     0.005394
NI565   NI        0.377883    0.097159    0.251867     0.004307
PD566   PD        0.367944    0.124339    0.264612     0.005394
NI567   NI        0.413767    0.113986    0.249709     0.004307
NI568   NI        0.382746    0.122582    0.220275     0.004307
NI569   NI        0.437162    0.091360    0.226283     0.004307
NI570   NI        0.448645    0.114963    0.289336     0.004307
PD571   PD        0.470252    0.091757    0.266899     0.005394
PD572   PD        0.469570    0.125086    0.228903     0.005394
NI573   NI        0.511796    0.106540    0.193290     0.004307
NI574   NI        0.508186    0.095110    0.237155     0.004307
NI575   NI        0.540737    0.094050    0.266275     0.004307
PD576   PD        0.539327    0.126458    0.228604     0.005394
NI577   NI        0.586940    0.127272    0.238152     0.004307
NI578   NI        0.591756    0.082244    0.252436     0.004307
NI579   NI        0.623453    0.120202    0.209550     0.004307
NI580   NI        0.628665    0.123990    0.259367     0.004307
NI581   NI        0.128276    0.184233    0.288945     0.004307
NI582   NI        0.180984    0.163669    0.279133     0.004307
PD583   PD        0.194117    0.191855    0.228290     0.005394
NI584   NI        0.224990    0.164830    0.209035     0.004307
PD585   PD        0.229572    0.193209    0.263874     0.005394
PD586   PD        0.265215    0.158488    0.263106     0.005394
PD587   PD        0.263693    0.192516    0.225047     0.005394
NI588   NI        0.283876    0.144123    0.236241     0.004307
PD589   PD        0.299188    0.194744    0.263258     0.005394
PD590   PD        0.333415    0.159574    0.264101     0.005394
PD591   PD        0.331035    0.193201    0.225468     0.005394
PD592   PD        0.367401    0.159403    0.226515     0.005394
PD593   PD        0.365756    0.192770    0.263706     0.005394
PD594   PD        0.402585    0.156902    0.263050     0.005394
PD595   PD        0.401910    0.192173    0.226087     0.005394
PD596   PD        0.436674    0.160104    0.225617     0.005394
PD597   PD        0.435379    0.194129    0.264547     0.005394
PD598   PD        0.470521    0.159847    0.265676     0.005394
PD599   PD        0.470739    0.193990    0.227898     0.005394
NI600   NI        0.488282    0.152938    0.213405     0.004307
PD601   PD        0.503347    0.193364    0.264224     0.005394
NI602   NI        0.527077    0.169855    0.301108     0.004307
PD603   PD        0.537828    0.195023    0.228544     0.005394
NI604   NI        0.606817    0.151370    0.222210     0.004307
PD605   PD        0.572161    0.196799    0.267111     0.005394
PD606   PD        0.606089    0.161710    0.265365     0.005394
PD607   PD        0.607385    0.195135    0.232862     0.005394
PD608   PD        0.640104    0.162497    0.231174     0.005394
PD609   PD        0.641526    0.197369    0.266284     0.005394
NI610   NI        0.675914    0.161854    0.266771     0.004307
PD611   PD        0.674761    0.194425    0.228065     0.005394
NI612   NI        0.709430    0.197025    0.267695     0.004307
NI613   NI        0.092583    0.262952    0.268622     0.004307
NI614   NI        0.126705    0.228365    0.264137     0.004307
NI615   NI        0.131588    0.254711    0.202818     0.004307
PD616   PD        0.160795    0.227468    0.228383     0.005394
PD617   PD        0.161473    0.259616    0.266004     0.005394
PD618   PD        0.196147    0.227665    0.265014     0.005394
PD619   PD        0.193916    0.260634    0.226736     0.005394
NI620   NI        0.225882    0.249771    0.221806     0.004307
PD621   PD        0.228467    0.262451    0.262733     0.005394
PD622   PD        0.264632    0.223371    0.262781     0.005394
PD623   PD        0.263733    0.261326    0.225721     0.005394
PD624   PD        0.297901    0.226533    0.223630     0.005394
PD625   PD        0.297611    0.260647    0.262854     0.005394
PD626   PD        0.330542    0.225822    0.261356     0.005394
PD627   PD        0.331943    0.259773    0.226217     0.005394
NI628   NI        0.343569    0.215530    0.210416     0.004307
PD629   PD        0.365589    0.262394    0.264915     0.005394
PD630   PD        0.412061    0.218795    0.261455     0.005394
PD631   PD        0.402280    0.261286    0.227471     0.005394
PD632   PD        0.434650    0.228019    0.227507     0.005394
PD633   PD        0.433911    0.262497    0.264749     0.005394
NI634   NI        0.458098    0.204425    0.264814     0.004307
PD635   PD        0.469628    0.260313    0.227139     0.005394
PD636   PD        0.503799    0.227840    0.226407     0.005394
PD637   PD        0.502969    0.262397    0.263641     0.005394
PD638   PD        0.539515    0.230788    0.262529     0.005394
PD639   PD        0.538029    0.263126    0.226865     0.005394
PD640   PD        0.573196    0.231157    0.227492     0.005394
PD641   PD        0.571774    0.265389    0.267444     0.005394
PD642   PD        0.606061    0.230097    0.266688     0.005394
NI643   NI        0.601722    0.246728    0.218505     0.004307
PD644   PD        0.640695    0.229164    0.229953     0.005394
NI645   NI        0.659584    0.273391    0.278704     0.004307
PD646   PD        0.675155    0.230360    0.266353     0.005394
PD647   PD        0.674935    0.264204    0.231999     0.005394
PD648   PD        0.709110    0.229685    0.231210     0.005394
PD649   PD        0.709118    0.264265    0.266020     0.005394
NI650   NI        0.768372    0.251424    0.273363     0.004307
NI651   NI        0.743712    0.265854    0.229923     0.004307
NI652   NI        0.783118    0.246086    0.255491     0.004307
NI653   NI        0.094104    0.331716    0.266019     0.004307
NI654   NI        0.124971    0.296650    0.274270     0.004307
PD655   PD        0.128468    0.330851    0.230508     0.005394
PD656   PD        0.161814    0.295223    0.229538     0.005394
PD657   PD        0.161374    0.329553    0.264311     0.005394
PD658   PD        0.194600    0.295248    0.265229     0.005394
PD659   PD        0.195558    0.328954    0.227549     0.005394
PD660   PD        0.229616    0.294096    0.226910     0.005394
PD661   PD        0.228970    0.329163    0.264190     0.005394
PD662   PD        0.263483    0.293395    0.261672     0.005394
PD663   PD        0.264101    0.327858    0.227340     0.005394
PD664   PD        0.296768    0.294505    0.224727     0.005394
PD665   PD        0.297119    0.326449    0.247661     0.005394
PD666   PD        0.330584    0.296117    0.262187     0.005394
PD667   PD        0.337338    0.332333    0.251098     0.005394
PD668   PD        0.364749    0.294686    0.225355     0.005394
PD669   PD        0.361180    0.327516    0.246506     0.005394
PD670   PD        0.400451    0.296065    0.263065     0.005394
PD671   PD        0.400584    0.329833    0.225873     0.005394
PD672   PD        0.436567    0.294414    0.228221     0.005394
PD673   PD        0.432532    0.329447    0.263807     0.005394
NI674   NI        0.459693    0.275170    0.250919     0.004307
PD675   PD        0.436477    0.336517    0.213600     0.005394
PD676   PD        0.503702    0.296417    0.227722     0.005394
PD677   PD        0.502066    0.332413    0.263937     0.005394
PD678   PD        0.537209    0.297823    0.265576     0.005394
PD679   PD        0.532442    0.343396    0.246799     0.005394
NI680   NI        0.571500    0.280167    0.236862     0.004307
PD681   PD        0.571902    0.332199    0.265731     0.005394
PD682   PD        0.606447    0.297975    0.266227     0.005394
PD683   PD        0.639227    0.329906    0.262253     0.005394
PD684   PD        0.639940    0.298298    0.227772     0.005394
PD685   PD        0.640597    0.334769    0.270352     0.005394
PD686   PD        0.674817    0.297955    0.268108     0.005394
PD687   PD        0.675109    0.330850    0.229479     0.005394
NI688   NI        0.714057    0.261464    0.205414     0.004307
PD689   PD        0.707518    0.335468    0.269543     0.005394
NI690   NI        0.743454    0.301884    0.269374     0.004307
NI691   NI        0.756227    0.311105    0.242140     0.004307
NI692   NI        0.784932    0.326619    0.279809     0.004307
NI693   NI        0.061128    0.366047    0.272622     0.004307
NI694   NI        0.090615    0.336406    0.196908     0.004307
NI695   NI        0.093340    0.397908    0.268290     0.004307
PD696   PD        0.127733    0.365204    0.268470     0.005394
NI697   NI        0.111856    0.402650    0.244428     0.004307
NI698   NI        0.157763    0.337562    0.202546     0.004307
PD699   PD        0.161910    0.402202    0.269447     0.005394
NI700   NI        0.217086    0.351848    0.267316     0.004307
PD701   PD        0.194686    0.398925    0.230791     0.005394
PD702   PD        0.230593    0.363952    0.229554     0.005394
PD703   PD        0.229518    0.398055    0.265203     0.005394
PD704   PD        0.260851    0.363665    0.270322     0.005394
PD705   PD        0.264098    0.400199    0.227156     0.005394
PD706   PD        0.298423    0.364541    0.224802     0.005394
PD707   PD        0.301887    0.405368    0.268795     0.005394
PD708   PD        0.331825    0.360661    0.263376     0.005394
PD709   PD        0.330247    0.398813    0.227370     0.005394
PD710   PD        0.365833    0.365759    0.227154     0.005394
PD711   PD        0.365305    0.395664    0.264425     0.005394
PD712   PD        0.399456    0.363677    0.263925     0.005394
PD713   PD        0.399219    0.399214    0.226779     0.005394
PD714   PD        0.433646    0.364272    0.226780     0.005394
PD715   PD        0.433355    0.399216    0.263817     0.005394
PD716   PD        0.468552    0.366099    0.263064     0.005394
PD717   PD        0.469069    0.399345    0.227155     0.005394
PD718   PD        0.503011    0.364918    0.227958     0.005394
PD719   PD        0.503052    0.400394    0.262850     0.005394
PD720   PD        0.536216    0.365147    0.263957     0.005394
PD721   PD        0.553019    0.386280    0.238828     0.005394
PD722   PD        0.571859    0.363818    0.226418     0.005394
PD723   PD        0.569793    0.399888    0.263294     0.005394
PD724   PD        0.604364    0.366375    0.265571     0.005394
PD725   PD        0.606652    0.398954    0.225592     0.005394
PD726   PD        0.639747    0.365147    0.228448     0.005394
PD727   PD        0.638528    0.400402    0.264633     0.005394
PD728   PD        0.673624    0.367573    0.264232     0.005394
PD729   PD        0.673488    0.399768    0.229868     0.005394
PD730   PD        0.708776    0.366897    0.232337     0.005394
PD731   PD        0.709797    0.401032    0.268395     0.005394
NI732   NI        0.767666    0.365455    0.255667     0.004307
PD733   PD        0.741349    0.401643    0.232598     0.005394
NI734   NI        0.773907    0.353881    0.230386     0.004307
NI735   NI        0.796198    0.402957    0.257241     0.004307
NI736   NI        0.816076    0.367037    0.250087     0.004307
NI737   NI        0.053780    0.423989    0.275867     0.004307
NI738   NI        0.073348    0.432656    0.229121     0.004307
NI739   NI        0.083910    0.459939    0.272328     0.004307
NI740   NI        0.109392    0.422738    0.279557     0.004307
PD741   PD        0.128547    0.469412    0.230547     0.005394
NI742   NI        0.158120    0.436571    0.230626     0.004307
PD743   PD        0.163509    0.469394    0.267850     0.005394
PD744   PD        0.197518    0.434571    0.269232     0.005394
PD745   PD        0.197582    0.468529    0.232785     0.005394
PD746   PD        0.230190    0.433958    0.230492     0.005394
PD747   PD        0.231727    0.469577    0.268351     0.005394
NI748   NI        0.240641    0.429427    0.253503     0.004307
PD749   PD        0.265212    0.467937    0.231184     0.005394
PD750   PD        0.281089    0.444232    0.201258     0.005394
PD751   PD        0.298547    0.467252    0.265988     0.005394
PD752   PD        0.330465    0.434462    0.267552     0.005394
PD753   PD        0.331738    0.466254    0.228581     0.005394
PD754   PD        0.365901    0.433918    0.227473     0.005394
PD755   PD        0.371355    0.481032    0.256834     0.005394
PD756   PD        0.399145    0.432697    0.263120     0.005394
PD757   PD        0.391885    0.461658    0.215216     0.005394
PD758   PD        0.434634    0.433566    0.228630     0.005394
PD759   PD        0.434660    0.466645    0.265971     0.005394
PD760   PD        0.467956    0.432672    0.265333     0.005394
PD761   PD        0.467513    0.467187    0.228408     0.005394
PD762   PD        0.502850    0.433793    0.225457     0.005394
PD763   PD        0.502643    0.469724    0.264072     0.005394
PD764   PD        0.537844    0.433603    0.264367     0.005394
PD765   PD        0.537362    0.467595    0.226620     0.005394
PD766   PD        0.578127    0.435236    0.242105     0.005394
PD767   PD        0.587317    0.478048    0.267132     0.005394
PD768   PD        0.604405    0.439226    0.282365     0.005394
PD769   PD        0.611102    0.472522    0.242052     0.005394
PD770   PD        0.639591    0.434202    0.229015     0.005394
NI771   NI        0.651024    0.475197    0.259283     0.004307
PD772   PD        0.673474    0.435529    0.265396     0.005394
PD773   PD        0.671196    0.470699    0.232255     0.005394
PD774   PD        0.706839    0.436393    0.233269     0.005394
NI775   NI        0.721432    0.486677    0.259318     0.004307
NI776   NI        0.790443    0.445049    0.269595     0.004307
NI777   NI        0.753207    0.453103    0.244711     0.004307
NI778   NI        0.774436    0.438304    0.233699     0.004307
NI779   NI        0.799819    0.468357    0.262219     0.004307
NI780   NI        0.833253    0.434883    0.259640     0.004307
NI781   NI        0.058840    0.502918    0.266875     0.004307
NI782   NI        0.093497    0.502656    0.231272     0.004307
PD783   PD        0.093343    0.537046    0.269387     0.005394
PD784   PD        0.127031    0.503879    0.268127     0.005394
NI785   NI        0.134041    0.515837    0.210652     0.004307
NI786   NI        0.173340    0.491417    0.222939     0.004307
PD787   PD        0.165065    0.537503    0.271689     0.005394
PD788   PD        0.194641    0.501895    0.267296     0.005394
PD789   PD        0.197320    0.536742    0.230650     0.005394
PD790   PD        0.232057    0.502656    0.232737     0.005394
PD791   PD        0.224757    0.539157    0.270643     0.005394
NI792   NI        0.248067    0.495711    0.236134     0.004307
PD793   PD        0.266265    0.536690    0.233051     0.005394
PD794   PD        0.293858    0.500847    0.219835     0.005394
PD795   PD        0.296545    0.536998    0.271328     0.005394
PD796   PD        0.337124    0.506838    0.284749     0.005394
PD797   PD        0.336051    0.540287    0.235134     0.005394
PD798   PD        0.363189    0.500741    0.229573     0.005394
PD799   PD        0.376857    0.539324    0.250786     0.005394
PD800   PD        0.410143    0.505494    0.275437     0.005394
PD801   PD        0.402653    0.557903    0.214602     0.005394
PD802   PD        0.444630    0.507488    0.237439     0.005394
PD803   PD        0.443661    0.540382    0.275185     0.005394
PD804   PD        0.469811    0.502624    0.260207     0.005394
PD805   PD        0.474870    0.543569    0.233826     0.005394
PD806   PD        0.502203    0.501343    0.228390     0.005394
PD807   PD        0.513899    0.522870    0.251438     0.005394
PD808   PD        0.536452    0.503960    0.263322     0.005394
PD809   PD        0.539402    0.537320    0.227334     0.005394
PD810   PD        0.570888    0.502712    0.228671     0.005394
PD811   PD        0.584340    0.540526    0.254830     0.005394
NI812   NI        0.622385    0.515654    0.264918     0.004307
PD813   PD        0.582549    0.531005    0.233618     0.005394
PD814   PD        0.641306    0.502969    0.225104     0.005394
NI815   NI        0.645508    0.548750    0.257772     0.004307
NI816   NI        0.674053    0.503707    0.260918     0.004307
NI817   NI        0.691958    0.546035    0.237262     0.004307
NI818   NI        0.729347    0.497702    0.210206     0.004307
NI819   NI        0.702319    0.540218    0.271289     0.004307
NI820   NI        0.762808    0.509715    0.284831     0.004307
NI821   NI        0.739598    0.546346    0.216063     0.004307
NI822   NI        0.796238    0.499022    0.227562     0.004307
NI823   NI        0.795931    0.536571    0.261166     0.004307
NI824   NI        0.829597    0.506608    0.259254     0.004307
NI825   NI        0.076538    0.631065    0.250707     0.004307
NI826   NI        0.129511    0.570295    0.270952     0.004307
NI827   NI        0.102869    0.584171    0.248830     0.004307
PD828   PD        0.161461    0.572168    0.231733     0.005394
NI829   NI        0.158026    0.618126    0.246627     0.004307
NI830   NI        0.212367    0.582724    0.278016     0.004307
PD831   PD        0.195800    0.605726    0.232593     0.005394
PD832   PD        0.230913    0.573638    0.232875     0.005394
NI833   NI        0.210310    0.625479    0.274480     0.004307
NI834   NI        0.251387    0.560992    0.245634     0.004307
NI835   NI        0.278358    0.586031    0.224636     0.004307
PD836   PD        0.289744    0.582510    0.241069     0.005394
PD837   PD        0.296564    0.604759    0.269043     0.005394
PD838   PD        0.328180    0.571722    0.270334     0.005394
PD839   PD        0.332591    0.604269    0.233581     0.005394
PD840   PD        0.363555    0.569335    0.234038     0.005394
PD841   PD        0.359807    0.614966    0.275419     0.005394
PD842   PD        0.413490    0.574837    0.271430     0.005394
PD843   PD        0.400730    0.602841    0.233312     0.005394
PD844   PD        0.431552    0.571249    0.228832     0.005394
PD845   PD        0.429976    0.610802    0.272113     0.005394
PD846   PD        0.467815    0.586901    0.256910     0.005394
PD847   PD        0.461158    0.610861    0.232216     0.005394
PD848   PD        0.503272    0.566974    0.239139     0.005394
PD849   PD        0.498644    0.623087    0.259527     0.005394
PD850   PD        0.537062    0.584406    0.277476     0.005394
PD851   PD        0.532415    0.603581    0.230122     0.005394
PD852   PD        0.580281    0.558690    0.213917     0.005394
PD853   PD        0.565421    0.605924    0.260786     0.005394
PD854   PD        0.603273    0.580611    0.271921     0.005394
NI855   NI        0.601897    0.612334    0.230555     0.004307
PD856   PD        0.639563    0.578890    0.240639     0.005394
PD857   PD        0.652229    0.608632    0.279661     0.005394
NI858   NI        0.680362    0.583166    0.266198     0.004307
NI859   NI        0.673864    0.609242    0.233173     0.004307
NI860   NI        0.724119    0.551117    0.201076     0.004307
NI861   NI        0.715004    0.615063    0.264297     0.004307
NI862   NI        0.740354    0.552857    0.287068     0.004307
NI863   NI        0.741410    0.607087    0.236549     0.004307
NI864   NI        0.781727    0.616490    0.264842     0.004307
NI865   NI        0.115949    0.628010    0.248210     0.004307
NI866   NI        0.160010    0.638704    0.230436     0.004307
NI867   NI        0.145482    0.699796    0.256184     0.004307
PD868   PD        0.195923    0.640608    0.269420     0.005394
NI869   NI        0.188202    0.670542    0.211584     0.004307
PD870   PD        0.230970    0.641303    0.231793     0.005394
NI871   NI        0.236769    0.695133    0.239343     0.004307
NI872   NI        0.259534    0.660475    0.257706     0.004307
NI873   NI        0.238844    0.689018    0.229606     0.004307
PD874   PD        0.298078    0.640090    0.235137     0.005394
PD875   PD        0.296655    0.674861    0.268345     0.005394
NI876   NI        0.333752    0.648151    0.249224     0.004307
PD877   PD        0.330795    0.673258    0.235326     0.005394
PD878   PD        0.365723    0.673242    0.198577     0.005394
NI879   NI        0.385633    0.695915    0.259616     0.004307
PD880   PD        0.394917    0.648786    0.274760     0.005394
NI881   NI        0.409916    0.673607    0.222768     0.004307
NI882   NI        0.469339    0.666575    0.249352     0.004307
PD883   PD        0.431851    0.679997    0.272399     0.005394
NI884   NI        0.458620    0.652002    0.258914     0.004307
NI885   NI        0.499011    0.679296    0.213043     0.004307
PD886   PD        0.501328    0.635821    0.245186     0.005394
NI887   NI        0.509270    0.688394    0.268700     0.004307
PD888   PD        0.541726    0.648046    0.271678     0.005394
NI889   NI        0.544709    0.681811    0.229047     0.004307
NI890   NI        0.564697    0.637733    0.241961     0.004307
PD891   PD        0.574313    0.683533    0.269010     0.005394
PD892   PD        0.610647    0.652196    0.269470     0.005394
NI893   NI        0.625556    0.662497    0.223773     0.004307
NI894   NI        0.640573    0.650591    0.230271     0.004307
NI895   NI        0.641593    0.682064    0.266274     0.004307
NI896   NI        0.689427    0.644651    0.242130     0.004307
NI897   NI        0.672822    0.676362    0.228687     0.004307
NI898   NI        0.710057    0.648592    0.226535     0.004307
NI899   NI        0.710388    0.682903    0.263837     0.004307
NI900   NI        0.764616    0.661009    0.267239     0.004307
NI901   NI        0.195216    0.744589    0.303885     0.004307
NI902   NI        0.230583    0.700863    0.247934     0.004307
NI903   NI        0.230964    0.745287    0.267084     0.004307
NI904   NI        0.254716    0.702518    0.262680     0.004307
NI905   NI        0.279259    0.765538    0.225534     0.004307
NI906   NI        0.308668    0.726463    0.239151     0.004307
NI907   NI        0.295405    0.758363    0.243556     0.004307
PD908   PD        0.336009    0.707865    0.272722     0.005394
NI909   NI        0.333645    0.740644    0.237944     0.004307
NI910   NI        0.365820    0.711744    0.234376     0.004307
PD911   PD        0.368101    0.742015    0.271520     0.005394
NI912   NI        0.391505    0.716897    0.231203     0.004307
NI913   NI        0.393604    0.769149    0.233434     0.004307
PD914   PD        0.435261    0.713698    0.234817     0.005394
NI915   NI        0.437369    0.749423    0.271178     0.004307
PD916   PD        0.467379    0.712688    0.271347     0.005394
NI917   NI        0.470315    0.747543    0.234330     0.004307
NI918   NI        0.505172    0.708073    0.212436     0.004307
PD919   PD        0.505162    0.749285    0.269584     0.005394
NI920   NI        0.551536    0.726101    0.256299     0.004307
NI921   NI        0.536721    0.744722    0.232939     0.004307
NI922   NI        0.571248    0.725207    0.219973     0.004307
NI923   NI        0.569115    0.746859    0.265177     0.004307
NI924   NI        0.610328    0.720093    0.269845     0.004307
NI925   NI        0.608319    0.751992    0.233140     0.004307
NI926   NI        0.667207    0.711005    0.195686     0.004307
NI927   NI        0.642323    0.753791    0.268741     0.004307
NI928   NI        0.696596    0.715245    0.278677     0.004307
NI929   NI        0.289545    0.792314    0.259705     0.004307
NI930   NI        0.332301    0.775687    0.268023     0.004307
NI931   NI        0.348914    0.783009    0.219039     0.004307
NI932   NI        0.340135    0.831345    0.249357     0.004307
NI933   NI        0.401469    0.778717    0.270764     0.004307
NI934   NI        0.433398    0.785325    0.236854     0.004307
NI935   NI        0.451934    0.827696    0.255537     0.004307
NI936   NI        0.470622    0.782637    0.269239     0.004307
NI937   NI        0.511656    0.813841    0.246040     0.004307
NI938   NI        0.501937    0.816069    0.268244     0.004307
NI939   NI        0.538186    0.783746    0.269132     0.004307
NI940   NI        0.607310    0.785520    0.269518     0.004307
NI941   NI        0.307053    0.052999    0.328728     0.004307
NI942   NI        0.331187    0.059216    0.305428     0.004307
PD943   PD        0.367195    0.056042    0.337895     0.005394
PD944   PD        0.401786    0.056500    0.303848     0.005394
NI945   NI        0.435875    0.057255    0.338510     0.004307
NI946   NI        0.471897    0.058429    0.303549     0.004307
NI947   NI        0.504453    0.056998    0.340187     0.004307
NI948   NI        0.527270    0.047861    0.280252     0.004307
NI949   NI        0.574274    0.060687    0.350495     0.004307
NI950   NI        0.198366    0.126150    0.303631     0.004307
NI951   NI        0.208370    0.127382    0.334499     0.004307
NI952   NI        0.265818    0.086510    0.329574     0.004307
NI953   NI        0.256095    0.100749    0.280897     0.004307
NI954   NI        0.298815    0.088730    0.300907     0.004307
NI955   NI        0.271153    0.108790    0.343745     0.004307
PD956   PD        0.334228    0.090463    0.341431     0.005394
PD957   PD        0.333839    0.125257    0.302316     0.005394
PD958   PD        0.367756    0.091570    0.303428     0.005394
PD959   PD        0.366977    0.124348    0.338639     0.005394
NI960   NI        0.409055    0.070858    0.359591     0.004307
NI961   NI        0.396126    0.104318    0.325335     0.004307
PD962   PD        0.436786    0.091695    0.303439     0.005394
NI963   NI        0.414034    0.125096    0.332142     0.004307
NI964   NI        0.444219    0.102032    0.361861     0.004307
PD965   PD        0.470504    0.127403    0.301219     0.005394
NI966   NI        0.542534    0.087369    0.301084     0.004307
PD967   PD        0.504666    0.126663    0.340269     0.005394
NI968   NI        0.551039    0.066227    0.352852     0.004307
NI969   NI        0.531228    0.111734    0.306977     0.004307
NI970   NI        0.573111    0.094376    0.305038     0.004307
NI971   NI        0.571688    0.105937    0.330609     0.004307
NI972   NI        0.606096    0.095055    0.342203     0.004307
PD973   PD        0.607163    0.128880    0.304900     0.005394
PD974   PD        0.640223    0.126623    0.340802     0.005394
NI975   NI        0.690554    0.113299    0.288763     0.004307
NI976   NI        0.128064    0.192348    0.304871     0.004307
NI977   NI        0.171048    0.168765    0.297860     0.004307
PD978   PD        0.160535    0.194622    0.340270     0.005394
NI979   NI        0.190077    0.120519    0.340390     0.004307
PD980   PD        0.195687    0.190302    0.299638     0.005394
PD981   PD        0.232004    0.159515    0.303757     0.005394
NI982   NI        0.229795    0.179602    0.350372     0.004307
NI983   NI        0.243685    0.161417    0.341428     0.004307
PD984   PD        0.264616    0.191309    0.301197     0.005394
PD985   PD        0.299732    0.159150    0.299828     0.005394
NI986   NI        0.284390    0.183113    0.347291     0.004307
PD987   PD        0.333664    0.158184    0.337254     0.005394
PD988   PD        0.351564    0.222097    0.324525     0.005394
PD989   PD        0.368617    0.159494    0.301097     0.005394
PD990   PD        0.367181    0.193042    0.337710     0.005394
PD991   PD        0.401594    0.158302    0.339242     0.005394
PD992   PD        0.400932    0.192167    0.300655     0.005394
PD993   PD        0.435648    0.160215    0.301978     0.005394
PD994   PD        0.432737    0.195926    0.337876     0.005394
PD995   PD        0.470485    0.159669    0.339170     0.005394
PD996   PD        0.468636    0.193962    0.302015     0.005394
PD997   PD        0.503162    0.160755    0.301521     0.005394
PD998   PD        0.524960    0.205605    0.349394     0.005394
PD999   PD        0.537352    0.159217    0.338435     0.005394
NI1000   NI        0.551818    0.171790    0.301579     0.004307
PD1001   PD        0.573046    0.160990    0.303149     0.005394
PD1002   PD        0.571829    0.196801    0.341061     0.005394
NI1003   NI        0.595907    0.140208    0.340073     0.004307
PD1004   PD        0.605629    0.195587    0.304215     0.005394
NI1005   NI        0.652277    0.135927    0.295520     0.004307
PD1006   PD        0.639751    0.198620    0.344063     0.005394
PD1007   PD        0.674345    0.161039    0.341142     0.005394
PD1008   PD        0.675053    0.196825    0.304906     0.005394
NI1009   NI        0.707140    0.127261    0.341496     0.004307
NI1010   NI        0.715059    0.173755    0.343980     0.004307
NI1011   NI        0.768416    0.183739    0.324722     0.004307
NI1012   NI        0.094684    0.261627    0.338543     0.004307
NI1013   NI        0.115641    0.221618    0.368605     0.004307
NI1014   NI        0.127680    0.261352    0.302860     0.004307
NI1015   NI        0.145647    0.235572    0.307423     0.004307
PD1016   PD        0.162830    0.263046    0.338859     0.005394
PD1017   PD        0.197453    0.227253    0.336912     0.005394
PD1018   PD        0.195632    0.262352    0.302178     0.005394
PD1019   PD        0.228718    0.227580    0.301547     0.005394
PD1020   PD        0.210283    0.263061    0.339225     0.005394
NI1021   NI        0.242736    0.205234    0.345460     0.004307
PD1022   PD        0.264139    0.261143    0.301127     0.005394
NI1023   NI        0.288190    0.247614    0.326597     0.004307
PD1024   PD        0.296834    0.259429    0.337475     0.005394
PD1025   PD        0.333818    0.226585    0.337620     0.005394
PD1026   PD        0.332133    0.261640    0.299618     0.005394
PD1027   PD        0.365824    0.225054    0.299163     0.005394
PD1028   PD        0.365556    0.261125    0.338588     0.005394
PD1029   PD        0.399784    0.228282    0.336122     0.005394
PD1030   PD        0.400793    0.263853    0.299562     0.005394
PD1031   PD        0.434759    0.228736    0.301638     0.005394
PD1032   PD        0.434551    0.263521    0.336110     0.005394
PD1033   PD        0.468522    0.228906    0.338490     0.005394
PD1034   PD        0.491551    0.249550    0.310006     0.005394
PD1035   PD        0.502892    0.229518    0.300950     0.005394
PD1036   PD        0.502850    0.262479    0.339340     0.005394
PD1037   PD        0.536475    0.229805    0.336492     0.005394
PD1038   PD        0.536139    0.264583    0.301613     0.005394
NI1039   NI        0.563377    0.214325    0.320505     0.004307
PD1040   PD        0.576758    0.266186    0.352012     0.005394
PD1041   PD        0.605855    0.230236    0.337540     0.005394
PD1042   PD        0.606426    0.263869    0.302370     0.005394
PD1043   PD        0.640444    0.231351    0.305765     0.005394
PD1044   PD        0.639011    0.265342    0.340406     0.005394
NI1045   NI        0.700782    0.217579    0.339039     0.004307
PD1046   PD        0.675263    0.265166    0.303481     0.005394
NI1047   NI        0.709117    0.219992    0.330401     0.004307
PD1048   PD        0.709604    0.264631    0.339923     0.005394
NI1049   NI        0.759254    0.231194    0.352767     0.004307
NI1050   NI        0.743209    0.261119    0.302795     0.004307
NI1051   NI        0.777009    0.268563    0.342136     0.004307
NI1052   NI        0.058788    0.296795    0.338792     0.004307
NI1053   NI        0.059429    0.332913    0.302440     0.004307
NI1054   NI        0.091810    0.298957    0.301514     0.004307
NI1055   NI        0.075500    0.326231    0.357928     0.004307
NI1056   NI        0.140840    0.301880    0.363614     0.004307
PD1057   PD        0.128534    0.330990    0.302907     0.005394
NI1058   NI        0.132802    0.281324    0.305142     0.004307
PD1059   PD        0.160909    0.332713    0.339959     0.005394
PD1060   PD        0.194494    0.298596    0.337560     0.005394
PD1061   PD        0.195696    0.331035    0.301883     0.005394
PD1062   PD        0.227719    0.295686    0.299987     0.005394
PD1063   PD        0.229865    0.330636    0.335327     0.005394
PD1064   PD        0.257064    0.282245    0.340770     0.005394
PD1065   PD        0.261422    0.327866    0.302130     0.005394
PD1066   PD        0.298011    0.292793    0.301341     0.005394
PD1067   PD        0.297439    0.329371    0.339152     0.005394
PD1068   PD        0.342514    0.269476    0.338151     0.005394
PD1069   PD        0.331791    0.329899    0.299279     0.005394
PD1070   PD        0.358798    0.285502    0.284251     0.005394
PD1071   PD        0.365242    0.328428    0.335953     0.005394
PD1072   PD        0.398262    0.294438    0.336758     0.005394
PD1073   PD        0.408930    0.341904    0.317403     0.005394
PD1074   PD        0.433193    0.297895    0.301521     0.005394
PD1075   PD        0.444655    0.310362    0.327512     0.005394
PD1076   PD        0.466409    0.298174    0.337272     0.005394
PD1077   PD        0.468589    0.329159    0.300501     0.005394
PD1078   PD        0.502142    0.296865    0.299542     0.005394
PD1079   PD        0.501722    0.333323    0.338619     0.005394
PD1080   PD        0.561680    0.311660    0.339468     0.005394
PD1081   PD        0.537508    0.331848    0.299778     0.005394
PD1082   PD        0.570573    0.298535    0.301342     0.005394
PD1083   PD        0.569369    0.330754    0.337832     0.005394
PD1084   PD        0.605998    0.300526    0.337590     0.005394
PD1085   PD        0.605382    0.332090    0.301416     0.005394
PD1086   PD        0.639365    0.297737    0.304990     0.005394
PD1087   PD        0.640936    0.333641    0.336844     0.005394
PD1088   PD        0.674148    0.299494    0.341142     0.005394
NI1089   NI        0.686498    0.334443    0.338266     0.004307
PD1090   PD        0.710241    0.299594    0.303207     0.005394
NI1091   NI        0.718668    0.322649    0.320440     0.004307
PD1092   PD        0.741592    0.300870    0.343601     0.005394
PD1093   PD        0.741104    0.334611    0.305837     0.005394
NI1094   NI        0.803534    0.310124    0.316814     0.004307
NI1095   NI        0.776270    0.336411    0.341807     0.004307
NI1096   NI        0.830420    0.271308    0.326880     0.004307
NI1097   NI        0.834451    0.333769    0.290383     0.004307
NI1098   NI        0.057011    0.367582    0.339899     0.004307
NI1099   NI        0.033900    0.402910    0.313398     0.004307
NI1100   NI        0.092660    0.365970    0.302180     0.004307
NI1101   NI        0.078269    0.394706    0.307533     0.004307
NI1102   NI        0.112096    0.351024    0.346178     0.004307
PD1103   PD        0.127421    0.400275    0.305130     0.005394
PD1104   PD        0.161711    0.366224    0.302792     0.005394
PD1105   PD        0.164399    0.402218    0.344167     0.005394
PD1106   PD        0.194834    0.363630    0.338839     0.005394
PD1107   PD        0.195944    0.391453    0.319823     0.005394
PD1108   PD        0.218214    0.357834    0.293219     0.005394
PD1109   PD        0.228149    0.401393    0.341784     0.005394
PD1110   PD        0.261539    0.365040    0.337213     0.005394
PD1111   PD        0.251030    0.403928    0.318568     0.005394
PD1112   PD        0.294746    0.362817    0.300968     0.005394
PD1113   PD        0.297985    0.394540    0.339231     0.005394
PD1114   PD        0.329708    0.364374    0.338546     0.005394
PD1115   PD        0.333172    0.396277    0.303764     0.005394
PD1116   PD        0.366301    0.370407    0.303383     0.005394
PD1117   PD        0.366120    0.397240    0.335902     0.005394
PD1118   PD        0.371029    0.372255    0.322523     0.005394
PD1119   PD        0.399566    0.399980    0.300937     0.005394
PD1120   PD        0.434454    0.364690    0.299257     0.005394
PD1121   PD        0.431899    0.400710    0.338551     0.005394
PD1122   PD        0.468048    0.366710    0.335872     0.005394
PD1123   PD        0.467048    0.399958    0.301795     0.005394
PD1124   PD        0.501229    0.365485    0.299800     0.005394
PD1125   PD        0.500003    0.398791    0.337924     0.005394
PD1126   PD        0.535686    0.368074    0.335934     0.005394
PD1127   PD        0.555013    0.415133    0.312711     0.005394
PD1128   PD        0.569770    0.365686    0.300723     0.005394
PD1129   PD        0.572390    0.392729    0.353347     0.005394
PD1130   PD        0.610737    0.366172    0.354767     0.005394
PD1131   PD        0.605593    0.399668    0.307062     0.005394
PD1132   PD        0.637342    0.369068    0.304211     0.005394
PD1133   PD        0.638874    0.402888    0.339562     0.005394
PD1134   PD        0.672788    0.368924    0.340964     0.005394
NI1135   NI        0.691592    0.413186    0.304421     0.004307
PD1136   PD        0.705290    0.367611    0.303985     0.005394
NI1137   NI        0.717741    0.406145    0.347489     0.004307
NI1138   NI        0.767655    0.356903    0.324476     0.004307
NI1139   NI        0.741805    0.396450    0.306720     0.004307
NI1140   NI        0.802058    0.367079    0.292379     0.004307
PD1141   PD        0.771902    0.402843    0.344238     0.005394
NI1142   NI        0.808486    0.375596    0.341854     0.004307
NI1143   NI        0.816111    0.412926    0.302761     0.004307
NI1144   NI        0.030964    0.429051    0.363627     0.004307
NI1145   NI        0.057201    0.466232    0.302413     0.004307
PD1146   PD        0.093488    0.436575    0.301963     0.005394
NI1147   NI        0.085801    0.458498    0.351567     0.004307
PD1148   PD        0.126287    0.434429    0.340556     0.005394
PD1149   PD        0.125254    0.465267    0.299135     0.005394
PD1150   PD        0.162418    0.433493    0.304408     0.005394
NI1151   NI        0.148999    0.475616    0.335268     0.004307
PD1152   PD        0.195405    0.435201    0.341810     0.005394
PD1153   PD        0.195310    0.469211    0.304489     0.005394
NI1154   NI        0.205812    0.424798    0.290895     0.004307
PD1155   PD        0.224468    0.472273    0.344464     0.005394
PD1156   PD        0.263872    0.431187    0.339352     0.005394
PD1157   PD        0.265192    0.466435    0.301703     0.005394
PD1158   PD        0.300436    0.431081    0.301471     0.005394
PD1159   PD        0.292237    0.470062    0.347169     0.005394
PD1160   PD        0.323707    0.434260    0.347446     0.005394
PD1161   PD        0.326145    0.468344    0.312837     0.005394
PD1162   PD        0.366917    0.431288    0.300436     0.005394
PD1163   PD        0.358572    0.468385    0.345897     0.005394
PD1164   PD        0.399786    0.434602    0.337817     0.005394
PD1165   PD        0.391421    0.470398    0.306153     0.005394
PD1166   PD        0.433156    0.434031    0.299600     0.005394
PD1167   PD        0.432530    0.467653    0.336739     0.005394
PD1168   PD        0.469630    0.433891    0.337194     0.005394
PD1169   PD        0.470562    0.447113    0.309004     0.005394
PD1170   PD        0.501656    0.432350    0.300628     0.005394
PD1171   PD        0.523134    0.457064    0.327295     0.005394
PD1172   PD        0.528117    0.460763    0.349707     0.005394
PD1173   PD        0.544416    0.477231    0.289181     0.005394
PD1174   PD        0.567209    0.436926    0.307733     0.005394
PD1175   PD        0.567469    0.471918    0.333166     0.005394
PD1176   PD        0.600858    0.435672    0.340460     0.005394
PD1177   PD        0.622764    0.477153    0.296882     0.005394
PD1178   PD        0.641632    0.426966    0.300745     0.005394
PD1179   PD        0.636290    0.470612    0.339406     0.005394
PD1180   PD        0.671097    0.436382    0.339477     0.005394
PD1181   PD        0.670943    0.471176    0.305576     0.005394
PD1182   PD        0.706942    0.438439    0.304303     0.005394
PD1183   PD        0.695436    0.448490    0.342492     0.005394
PD1184   PD        0.741782    0.438021    0.340283     0.005394
PD1185   PD        0.739781    0.470879    0.305230     0.005394
NI1186   NI        0.774471    0.437560    0.307270     0.004307
NI1187   NI        0.792658    0.451883    0.318231     0.004307
NI1188   NI        0.808361    0.434263    0.343661     0.004307
NI1189   NI        0.806463    0.458611    0.313812     0.004307
NI1190   NI        0.062011    0.502419    0.343503     0.004307
NI1191   NI        0.025289    0.570335    0.305923     0.004307
NI1192   NI        0.093773    0.504214    0.304851     0.004307
PD1193   PD        0.095598    0.537241    0.342047     0.005394
NI1194   NI        0.118976    0.507407    0.348263     0.004307
PD1195   PD        0.129224    0.537507    0.304465     0.005394
PD1196   PD        0.163390    0.502093    0.305264     0.005394
PD1197   PD        0.153747    0.539731    0.345583     0.005394
PD1198   PD        0.190145    0.505721    0.344265     0.005394
PD1199   PD        0.198199    0.537075    0.305493     0.005394
PD1200   PD        0.224489    0.506495    0.308550     0.005394
PD1201   PD        0.223305    0.539630    0.345115     0.005394
PD1202   PD        0.256972    0.504846    0.345912     0.005394
PD1203   PD        0.259821    0.539957    0.308470     0.005394
PD1204   PD        0.293707    0.503904    0.309595     0.005394
PD1205   PD        0.303320    0.533510    0.342690     0.005394
PD1206   PD        0.324547    0.504030    0.344695     0.005394
PD1207   PD        0.339287    0.540790    0.312624     0.005394
PD1208   PD        0.362607    0.498214    0.303927     0.005394
PD1209   PD        0.378851    0.568374    0.353997     0.005394
PD1210   PD        0.404214    0.489625    0.330571     0.005394
PD1211   PD        0.386944    0.555529    0.307621     0.005394
PD1212   PD        0.449152    0.499855    0.302654     0.005394
PD1213   PD        0.426721    0.532935    0.324343     0.005394
PD1214   PD        0.475562    0.482127    0.339716     0.005394
PD1215   PD        0.477531    0.551247    0.326355     0.005394
PD1216   PD        0.503037    0.501873    0.300252     0.005394
PD1217   PD        0.525979    0.551400    0.335367     0.005394
PD1218   PD        0.530868    0.504297    0.326777     0.005394
PD1219   PD        0.547807    0.542538    0.289495     0.005394
PD1220   PD        0.586460    0.502941    0.296449     0.005394
PD1221   PD        0.586270    0.543950    0.335434     0.005394
PD1222   PD        0.599624    0.513173    0.320909     0.005394
PD1223   PD        0.615277    0.541325    0.295673     0.005394
PD1224   PD        0.657162    0.506254    0.312297     0.005394
PD1225   PD        0.645730    0.546275    0.338576     0.005394
PD1226   PD        0.676999    0.503993    0.351345     0.005394
PD1227   PD        0.674279    0.546401    0.299781     0.005394
NI1228   NI        0.713367    0.516777    0.296816     0.004307
PD1229   PD        0.704843    0.537445    0.343963     0.005394
NI1230   NI        0.750289    0.527838    0.331643     0.004307
NI1231   NI        0.754842    0.539088    0.282150     0.004307
NI1232   NI        0.771040    0.507877    0.307758     0.004307
NI1233   NI        0.790402    0.533617    0.358724     0.004307
NI1234   NI        0.835085    0.519941    0.307853     0.004307
NI1235   NI        0.794871    0.536841    0.309651     0.004307
NI1236   NI        0.060164    0.569483    0.342302     0.004307
NI1237   NI        0.092702    0.568018    0.304841     0.004307
NI1238   NI        0.093921    0.605574    0.342861     0.004307
NI1239   NI        0.132482    0.567957    0.332169     0.004307
NI1240   NI        0.126910    0.606731    0.302813     0.004307
PD1241   PD        0.164438    0.570756    0.306162     0.005394
PD1242   PD        0.157900    0.609068    0.343367     0.005394
PD1243   PD        0.190792    0.574566    0.344721     0.005394
PD1244   PD        0.192023    0.610071    0.306541     0.005394
NI1245   NI        0.211090    0.582799    0.299684     0.004307
PD1246   PD        0.224685    0.608405    0.346003     0.005394
PD1247   PD        0.259358    0.572337    0.346094     0.005394
NI1248   NI        0.271440    0.615108    0.302036     0.004307
PD1249   PD        0.290869    0.573852    0.307916     0.005394
PD1250   PD        0.292806    0.607397    0.346289     0.005394
PD1251   PD        0.329902    0.577367    0.344105     0.005394
PD1252   PD        0.325704    0.606293    0.307520     0.005394
PD1253   PD        0.363090    0.579750    0.309559     0.005394
PD1254   PD        0.367958    0.615308    0.347243     0.005394
PD1255   PD        0.410702    0.573214    0.350785     0.005394
PD1256   PD        0.397272    0.602767    0.310267     0.005394
PD1257   PD        0.432012    0.571878    0.308285     0.005394
PD1258   PD        0.435962    0.614295    0.342290     0.005394
PD1259   PD        0.463750    0.572051    0.343026     0.005394
PD1260   PD        0.480280    0.608389    0.313060     0.005394
PD1261   PD        0.504180    0.583666    0.313327     0.005394
PD1262   PD        0.499218    0.607934    0.341178     0.005394
PD1263   PD        0.555003    0.579496    0.345336     0.005394
PD1264   PD        0.529390    0.595329    0.316569     0.005394
PD1265   PD        0.578802    0.579262    0.300344     0.005394
PD1266   PD        0.581702    0.617610    0.345165     0.005394
PD1267   PD        0.598896    0.562477    0.333036     0.005394
PD1268   PD        0.610688    0.616708    0.304569     0.005394
PD1269   PD        0.645270    0.583430    0.301783     0.005394
PD1270   PD        0.644670    0.614104    0.341308     0.005394
PD1271   PD        0.679447    0.580461    0.336321     0.005394
NI1272   NI        0.700063    0.610056    0.274260     0.004307
NI1273   NI        0.737122    0.606938    0.309015     0.004307
PD1274   PD        0.705735    0.606299    0.346306     0.005394
NI1275   NI        0.739256    0.570582    0.342099     0.004307
NI1276   NI        0.747392    0.617864    0.301775     0.004307
NI1277   NI        0.772696    0.575053    0.302089     0.004307
NI1278   NI        0.778524    0.619156    0.336744     0.004307
NI1279   NI        0.786799    0.573754    0.341840     0.004307
NI1280   NI        0.123123    0.642876    0.343384     0.004307
NI1281   NI        0.107893    0.687451    0.287176     0.004307
NI1282   NI        0.156236    0.638099    0.288774     0.004307
PD1283   PD        0.154989    0.677794    0.343949     0.005394
NI1284   NI        0.184826    0.660693    0.310627     0.004307
NI1285   NI        0.215554    0.691350    0.287596     0.004307
PD1286   PD        0.228092    0.641773    0.306668     0.005394
PD1287   PD        0.224832    0.678100    0.344085     0.005394
PD1288   PD        0.258062    0.642311    0.344367     0.005394
PD1289   PD        0.258495    0.677026    0.306050     0.005394
NI1290   NI        0.281184    0.655795    0.305684     0.004307
NI1291   NI        0.288283    0.689267    0.340860     0.004307
PD1292   PD        0.310152    0.631677    0.325275     0.005394
PD1293   PD        0.327149    0.674368    0.306984     0.005394
PD1294   PD        0.363774    0.649577    0.312401     0.005394
PD1295   PD        0.380056    0.677688    0.345790     0.005394
PD1296   PD        0.393711    0.638958    0.339194     0.005394
PD1297   PD        0.398914    0.682323    0.310179     0.005394
PD1298   PD        0.434164    0.647853    0.305932     0.005394
PD1299   PD        0.436616    0.679735    0.342878     0.005394
PD1300   PD        0.470236    0.647506    0.341335     0.005394
NI1301   NI        0.474599    0.674355    0.298402     0.004307
PD1302   PD        0.501948    0.651289    0.298517     0.005394
PD1303   PD        0.504730    0.675080    0.340793     0.005394
PD1304   PD        0.535964    0.637328    0.340035     0.005394
PD1305   PD        0.539981    0.681529    0.307290     0.005394
PD1306   PD        0.577979    0.651904    0.307127     0.005394
PD1307   PD        0.578493    0.685640    0.344001     0.005394
PD1308   PD        0.612320    0.650775    0.342384     0.005394
PD1309   PD        0.610591    0.686263    0.304590     0.005394
PD1310   PD        0.646283    0.649741    0.304659     0.005394
NI1311   NI        0.636424    0.676005    0.346562     0.004307
NI1312   NI        0.669584    0.640034    0.348129     0.004307
NI1313   NI        0.687036    0.673899    0.299618     0.004307
NI1314   NI        0.731490    0.648442    0.295101     0.004307
NI1315   NI        0.703088    0.668711    0.327605     0.004307
NI1316   NI        0.738192    0.642885    0.342823     0.004307
NI1317   NI        0.740421    0.676838    0.306873     0.004307
NI1318   NI        0.157699    0.711092    0.305412     0.004307
NI1319   NI        0.189922    0.711475    0.340862     0.004307
NI1320   NI        0.163011    0.745165    0.267291     0.004307
NI1321   NI        0.225677    0.709320    0.305322     0.004307
NI1322   NI        0.224755    0.743984    0.342716     0.004307
PD1323   PD        0.257828    0.712958    0.342127     0.005394
NI1324   NI        0.241491    0.752808    0.316214     0.004307
NI1325   NI        0.321044    0.697516    0.295912     0.004307
NI1326   NI        0.276086    0.755829    0.340346     0.004307
PD1327   PD        0.327788    0.708658    0.341658     0.005394
PD1328   PD        0.332504    0.742234    0.307480     0.005394
PD1329   PD        0.366208    0.706970    0.307619     0.005394
PD1330   PD        0.366508    0.742133    0.345847     0.005394
PD1331   PD        0.403229    0.715221    0.347656     0.005394
PD1332   PD        0.401975    0.749399    0.310769     0.005394
PD1333   PD        0.435046    0.715121    0.306628     0.005394
PD1334   PD        0.438230    0.749122    0.345623     0.005394
PD1335   PD        0.469155    0.705001    0.338026     0.005394
PD1336   PD        0.471078    0.748447    0.306801     0.005394
NI1337   NI        0.508049    0.735455    0.276150     0.004307
NI1338   NI        0.508574    0.748877    0.345844     0.004307
PD1339   PD        0.540570    0.713597    0.341320     0.005394
NI1340   NI        0.537818    0.749692    0.307326     0.004307
NI1341   NI        0.574344    0.718697    0.305500     0.004307
NI1342   NI        0.572772    0.750627    0.345676     0.004307
NI1343   NI        0.615088    0.717441    0.346048     0.004307
NI1344   NI        0.622124    0.755180    0.320464     0.004307
NI1345   NI        0.653767    0.736996    0.284557     0.004307
NI1346   NI        0.640677    0.753769    0.342986     0.004307
NI1347   NI        0.678977    0.719375    0.339226     0.004307
NI1348   NI        0.673935    0.778440    0.266434     0.004307
NI1349   NI        0.745473    0.722052    0.325305     0.004307
NI1350   NI        0.263992    0.778924    0.337275     0.004307
NI1351   NI        0.300236    0.777504    0.305932     0.004307
NI1352   NI        0.297554    0.811951    0.343032     0.004307
NI1353   NI        0.330006    0.794402    0.355087     0.004307
NI1354   NI        0.312973    0.823780    0.317707     0.004307
NI1355   NI        0.353522    0.776751    0.314532     0.004307
NI1356   NI        0.363957    0.811987    0.340677     0.004307
NI1357   NI        0.404489    0.784458    0.345241     0.004307
NI1358   NI        0.399523    0.812872    0.309115     0.004307
NI1359   NI        0.436479    0.783306    0.308440     0.004307
NI1360   NI        0.437303    0.818556    0.343633     0.004307
PD1361   PD        0.471730    0.782050    0.344301     0.005394
NI1362   NI        0.470624    0.815939    0.305591     0.004307
NI1363   NI        0.504637    0.782933    0.305833     0.004307
NI1364   NI        0.515366    0.801865    0.339088     0.004307
NI1365   NI        0.543517    0.798858    0.350156     0.004307
NI1366   NI        0.525226    0.826357    0.293087     0.004307
NI1367   NI        0.571762    0.787354    0.304292     0.004307
NI1368   NI        0.572512    0.819294    0.341587     0.004307
NI1369   NI        0.632749    0.801151    0.335757     0.004307
NI1370   NI        0.246988    0.062272    0.375734     0.004307
NI1371   NI        0.299678    0.058366    0.417382     0.004307
NI1372   NI        0.331727    0.056677    0.376143     0.004307
NI1373   NI        0.367868    0.057075    0.412379     0.004307
NI1374   NI        0.433742    0.000714    0.406801     0.004307
NI1375   NI        0.402053    0.055470    0.376026     0.004307
NI1376   NI        0.421766    0.023658    0.384614     0.004307
PD1377   PD        0.436635    0.057743    0.414443     0.005394
NI1378   NI        0.454502    0.013144    0.397807     0.004307
NI1379   NI        0.468096    0.059773    0.375036     0.004307
NI1380   NI        0.497585    0.052000    0.420898     0.004307
NI1381   NI        0.538455    0.058035    0.376720     0.004307
NI1382   NI        0.573460    0.057800    0.412970     0.004307
NI1383   NI        0.609728    0.051985    0.364287     0.004307
NI1384   NI        0.163398    0.126203    0.411998     0.004307
NI1385   NI        0.184641    0.117458    0.416802     0.004307
NI1386   NI        0.194261    0.124619    0.372559     0.004307
NI1387   NI        0.236515    0.077633    0.360552     0.004307
NI1388   NI        0.230832    0.126334    0.415093     0.004307
NI1389   NI        0.264212    0.092499    0.412001     0.004307
NI1390   NI        0.251753    0.105085    0.364196     0.004307
NI1391   NI        0.300023    0.091770    0.379765     0.004307
NI1392   NI        0.309628    0.139845    0.419774     0.004307
NI1393   NI        0.334444    0.093327    0.415201     0.004307
NI1394   NI        0.305237    0.112282    0.377158     0.004307
PD1395   PD        0.368154    0.089695    0.375602     0.005394
NI1396   NI        0.355082    0.113447    0.389050     0.004307
PD1397   PD        0.399915    0.090709    0.412923     0.005394
PD1398   PD        0.401135    0.124719    0.376410     0.005394
NI1399   NI        0.410488    0.079960    0.390628     0.004307
PD1400   PD        0.436592    0.126806    0.414915     0.005394
PD1401   PD        0.470438    0.091533    0.415621     0.005394
NI1402   NI        0.483535    0.120288    0.385141     0.004307
NI1403   NI        0.503631    0.091631    0.377276     0.004307
NI1404   NI        0.502636    0.121742    0.418532     0.004307
NI1405   NI        0.544347    0.070931    0.416941     0.004307
PD1406   PD        0.536995    0.127570    0.376554     0.005394
NI1407   NI        0.585098    0.070784    0.389465     0.004307
NI1408   NI        0.588120    0.105327    0.426237     0.004307
PD1409   PD        0.605569    0.093638    0.414894     0.005394
NI1410   NI        0.581457    0.116140    0.379813     0.004307
NI1411   NI        0.639493    0.094923    0.379316     0.004307
PD1412   PD        0.639601    0.129921    0.415516     0.005394
NI1413   NI        0.675184    0.073401    0.431422     0.004307
NI1414   NI        0.674184    0.129142    0.380345     0.004307
NI1415   NI        0.735524    0.124479    0.381813     0.004307
NI1416   NI        0.077283    0.205887    0.413149     0.004307
NI1417   NI        0.103173    0.169571    0.397146     0.004307
NI1418   NI        0.127639    0.195144    0.377354     0.004307
NI1419   NI        0.162247    0.160534    0.378680     0.004307
NI1420   NI        0.156742    0.200449    0.428064     0.004307
NI1421   NI        0.197880    0.163276    0.413314     0.004307
PD1422   PD        0.193477    0.197160    0.377250     0.005394
NI1423   NI        0.194782    0.151683    0.376409     0.004307
PD1424   PD        0.230990    0.196242    0.412470     0.005394
NI1425   NI        0.266008    0.158032    0.426847     0.004307
NI1426   NI        0.255211    0.180812    0.386822     0.004307
NI1427   NI        0.289859    0.155847    0.357259     0.004307
PD1428   PD        0.296881    0.190225    0.411710     0.005394
NI1429   NI        0.303505    0.161806    0.430796     0.004307
PD1430   PD        0.334039    0.194300    0.374813     0.005394
PD1431   PD        0.368075    0.158292    0.376155     0.005394
PD1432   PD        0.366486    0.193113    0.414565     0.005394
PD1433   PD        0.404665    0.163784    0.419467     0.005394
PD1434   PD        0.402283    0.195446    0.376030     0.005394
PD1435   PD        0.435465    0.158616    0.377677     0.005394
PD1436   PD        0.435056    0.195179    0.411748     0.005394
PD1437   PD        0.470052    0.159424    0.412503     0.005394
PD1438   PD        0.469109    0.195705    0.374364     0.005394
PD1439   PD        0.503962    0.160531    0.374900     0.005394
PD1440   PD        0.502507    0.196953    0.413987     0.005394
PD1441   PD        0.539000    0.160701    0.413257     0.005394
NI1442   NI        0.538303    0.196434    0.378227     0.004307
PD1443   PD        0.572652    0.161621    0.377337     0.005394
PD1444   PD        0.570373    0.195873    0.409404     0.005394
NI1445   NI        0.622096    0.137430    0.425954     0.004307
PD1446   PD        0.606419    0.195508    0.376441     0.005394
NI1447   NI        0.646470    0.127185    0.363924     0.004307
NI1448   NI        0.648730    0.212182    0.409805     0.004307
PD1449   PD        0.673717    0.163752    0.417263     0.005394
NI1450   NI        0.687092    0.189811    0.374564     0.004307
NI1451   NI        0.741360    0.156483    0.398050     0.004307
NI1452   NI        0.706888    0.198641    0.415692     0.004307
NI1453   NI        0.744036    0.168901    0.412654     0.004307
NI1454   NI        0.740853    0.196456    0.378618     0.004307
NI1455   NI        0.775708    0.197493    0.417815     0.004307
NI1456   NI        0.054646    0.268880    0.384814     0.004307
NI1457   NI        0.093583    0.228124    0.376823     0.004307
PD1458   PD        0.094087    0.263593    0.413876     0.005394
PD1459   PD        0.127544    0.229953    0.414089     0.005394
NI1460   NI        0.118746    0.269575    0.393555     0.004307
NI1461   NI        0.140131    0.238117    0.365709     0.004307
PD1462   PD        0.162061    0.262686    0.413596     0.005394
PD1463   PD        0.194227    0.229955    0.413182     0.005394
PD1464   PD        0.193983    0.261649    0.374473     0.005394
NI1465   NI        0.233656    0.223821    0.389646     0.004307
PD1466   PD        0.217451    0.286198    0.422506     0.005394
PD1467   PD        0.264584    0.225374    0.410842     0.005394
PD1468   PD        0.264788    0.261810    0.375751     0.005394
PD1469   PD        0.299043    0.225649    0.373593     0.005394
PD1470   PD        0.281768    0.265379    0.424344     0.005394
PD1471   PD        0.332109    0.227842    0.412236     0.005394
PD1472   PD        0.332926    0.262374    0.383416     0.005394
PD1473   PD        0.366337    0.228120    0.374506     0.005394
PD1474   PD        0.365864    0.260922    0.410046     0.005394
PD1475   PD        0.401957    0.227621    0.410249     0.005394
PD1476   PD        0.398719    0.263042    0.375546     0.005394
PD1477   PD        0.434349    0.228152    0.374567     0.005394
PD1478   PD        0.436146    0.261981    0.412343     0.005394
PD1479   PD        0.466685    0.230054    0.411546     0.005394
PD1480   PD        0.467826    0.263223    0.373548     0.005394
PD1481   PD        0.503077    0.228960    0.375156     0.005394
PD1482   PD        0.503040    0.263306    0.412316     0.005394
PD1483   PD        0.537061    0.230328    0.413022     0.005394
PD1484   PD        0.537976    0.262702    0.377045     0.005394
PD1485   PD        0.569471    0.225181    0.379659     0.005394
PD1486   PD        0.570735    0.266833    0.411577     0.005394
PD1487   PD        0.605551    0.233026    0.413703     0.005394
NI1488   NI        0.611659    0.242720    0.373960     0.004307
PD1489   PD        0.640158    0.231321    0.376262     0.005394
PD1490   PD        0.638336    0.265277    0.412811     0.005394
NI1491   NI        0.691412    0.224288    0.411595     0.004307
PD1492   PD        0.672959    0.264547    0.375499     0.005394
PD1493   PD        0.707851    0.232203    0.378427     0.005394
NI1494   NI        0.718608    0.258154    0.432861     0.004307
NI1495   NI        0.758928    0.222850    0.401791     0.004307
NI1496   NI        0.754727    0.259468    0.364072     0.004307
NI1497   NI        0.788590    0.223328    0.406959     0.004307
NI1498   NI        0.776114    0.263648    0.416100     0.004307
NI1499   NI        0.837014    0.256057    0.377667     0.004307
NI1500   NI        0.057603    0.294691    0.413536     0.004307
NI1501   NI        0.059631    0.336617    0.388701     0.004307
PD1502   PD        0.093184    0.296994    0.374935     0.005394
NI1503   NI        0.054606    0.333192    0.443296     0.004307
NI1504   NI        0.117519    0.276872    0.413555     0.004307
NI1505   NI        0.119737    0.339193    0.386193     0.004307
NI1506   NI        0.154005    0.283758    0.359387     0.004307
PD1507   PD        0.161619    0.331254    0.413914     0.005394
NI1508   NI        0.176590    0.278702    0.445892     0.004307
PD1509   PD        0.194940    0.330337    0.376034     0.005394
PD1510   PD        0.245697    0.305704    0.369843     0.005394
PD1511   PD        0.227512    0.329504    0.411266     0.005394
PD1512   PD        0.263527    0.298366    0.411774     0.005394
PD1513   PD        0.283541    0.329526    0.383934     0.005394
PD1514   PD        0.296622    0.295394    0.373077     0.005394
PD1515   PD        0.297327    0.331358    0.411136     0.005394
PD1516   PD        0.316322    0.295224    0.419462     0.005394
PD1517   PD        0.331759    0.329556    0.375022     0.005394
PD1518   PD        0.365117    0.295102    0.375516     0.005394
PD1519   PD        0.365673    0.330979    0.409540     0.005394
PD1520   PD        0.400603    0.299070    0.410900     0.005394
PD1521   PD        0.404990    0.346073    0.398467     0.005394
PD1522   PD        0.433656    0.296608    0.373858     0.005394
PD1523   PD        0.448097    0.335463    0.410774     0.005394
PD1524   PD        0.465133    0.295121    0.427635     0.005394
PD1525   PD        0.466918    0.331065    0.374118     0.005394
PD1526   PD        0.502445    0.296819    0.375070     0.005394
PD1527   PD        0.501727    0.332519    0.410883     0.005394
PD1528   PD        0.535501    0.299320    0.411018     0.005394
PD1529   PD        0.534596    0.330815    0.374281     0.005394
PD1530   PD        0.570101    0.298400    0.373720     0.005394
PD1531   PD        0.570598    0.331756    0.411461     0.005394
PD1532   PD        0.603561    0.297533    0.410962     0.005394
PD1533   PD        0.606010    0.333074    0.374120     0.005394
PD1534   PD        0.640495    0.298441    0.375937     0.005394
PD1535   PD        0.640350    0.319070    0.423975     0.005394
PD1536   PD        0.675191    0.287730    0.437105     0.005394
PD1537   PD        0.682938    0.321058    0.402900     0.005394
NI1538   NI        0.730085    0.292120    0.392978     0.004307
NI1539   NI        0.720480    0.339834    0.417587     0.004307
NI1540   NI        0.740439    0.297842    0.417869     0.004307
NI1541   NI        0.763911    0.333246    0.394991     0.004307
NI1542   NI        0.774798    0.300140    0.380582     0.004307
NI1543   NI        0.806534    0.328891    0.405745     0.004307
NI1544   NI        0.820537    0.298968    0.444304     0.004307
NI1545   NI        0.809956    0.333235    0.382155     0.004307
NI1546   NI        0.027018    0.399727    0.414873     0.004307
NI1547   NI        0.050884    0.375089    0.419744     0.004307
NI1548   NI        0.055048    0.423295    0.365255     0.004307
PD1549   PD        0.094150    0.365576    0.378573     0.005394
PD1550   PD        0.093335    0.399420    0.414834     0.005394
PD1551   PD        0.127170    0.364203    0.415221     0.005394
PD1552   PD        0.127356    0.398707    0.377547     0.005394
PD1553   PD        0.161439    0.365222    0.376281     0.005394
PD1554   PD        0.161295    0.398261    0.415442     0.005394
PD1555   PD        0.194379    0.365888    0.415428     0.005394
PD1556   PD        0.207094    0.427255    0.370545     0.005394
PD1557   PD        0.201120    0.336874    0.372683     0.005394
PD1558   PD        0.226968    0.395596    0.406698     0.005394
PD1559   PD        0.264083    0.364390    0.413843     0.005394
PD1560   PD        0.263718    0.397827    0.375682     0.005394
PD1561   PD        0.296428    0.364853    0.373332     0.005394
PD1562   PD        0.297384    0.399709    0.411459     0.005394
PD1563   PD        0.345323    0.355516    0.433492     0.005394
PD1564   PD        0.331250    0.398725    0.374341     0.005394
PD1565   PD        0.363386    0.364138    0.373069     0.005394
PD1566   PD        0.366424    0.403243    0.418756     0.005394
PD1567   PD        0.398444    0.363070    0.408964     0.005394
PD1568   PD        0.398524    0.400649    0.375552     0.005394
PD1569   PD        0.434667    0.367450    0.375460     0.005394
PD1570   PD        0.433164    0.401675    0.409938     0.005394
PD1571   PD        0.467367    0.342729    0.424522     0.005394
PD1572   PD        0.466369    0.400740    0.373933     0.005394
PD1573   PD        0.501500    0.364498    0.376334     0.005394
PD1574   PD        0.502870    0.411101    0.401746     0.005394
PD1575   PD        0.535712    0.365559    0.411520     0.005394
PD1576   PD        0.536706    0.400282    0.373541     0.005394
PD1577   PD        0.567684    0.366118    0.375082     0.005394
PD1578   PD        0.580926    0.400825    0.427803     0.005394
PD1579   PD        0.603213    0.367582    0.411423     0.005394
PD1580   PD        0.605711    0.400827    0.376428     0.005394
PD1581   PD        0.646394    0.379964    0.384942     0.005394
PD1582   PD        0.642072    0.382670    0.436305     0.005394
PD1583   PD        0.675099    0.354233    0.417657     0.005394
PD1584   PD        0.671348    0.404737    0.376379     0.005394
PD1585   PD        0.705664    0.368467    0.378813     0.005394
PD1586   PD        0.705235    0.400686    0.417677     0.005394
NI1587   NI        0.754202    0.374410    0.419665     0.004307
PD1588   PD        0.738871    0.401546    0.380047     0.005394
NI1589   NI        0.786795    0.349270    0.364426     0.004307
NI1590   NI        0.787199    0.408594    0.422535     0.004307
NI1591   NI        0.819994    0.375081    0.422049     0.004307
NI1592   NI        0.805796    0.404301    0.381754     0.004307
NI1593   NI        0.842020    0.403505    0.418884     0.004307
NI1594   NI        0.000714    0.423098    0.400211     0.004307
NI1595   NI        0.029113    0.506203    0.452440     0.004307
NI1596   NI        0.059620    0.433103    0.413300     0.004307
NI1597   NI        0.058970    0.466474    0.378301     0.004307
PD1598   PD        0.094175    0.433448    0.377156     0.005394
NI1599   NI        0.085213    0.459427    0.403864     0.004307
PD1600   PD        0.126386    0.432516    0.414167     0.005394
PD1601   PD        0.126056    0.468515    0.377832     0.005394
PD1602   PD        0.160471    0.436771    0.378731     0.005394
PD1603   PD        0.161716    0.473473    0.412976     0.005394
PD1604   PD        0.192314    0.435600    0.419166     0.005394
PD1605   PD        0.190364    0.471435    0.380980     0.005394
PD1606   PD        0.231205    0.434964    0.378980     0.005394
PD1607   PD        0.221910    0.473010    0.418978     0.005394
PD1608   PD        0.260346    0.429970    0.409441     0.005394
PD1609   PD        0.257117    0.472896    0.382675     0.005394
PD1610   PD        0.297494    0.431830    0.379992     0.005394
PD1611   PD        0.287750    0.491923    0.424944     0.005394
PD1612   PD        0.332208    0.429874    0.413408     0.005394
PD1613   PD        0.326946    0.470296    0.382231     0.005394
PD1614   PD        0.361395    0.436059    0.382222     0.005394
PD1615   PD        0.368896    0.479945    0.403945     0.005394
PD1616   PD        0.399259    0.437892    0.409038     0.005394
PD1617   PD        0.399081    0.491508    0.370103     0.005394
PD1618   PD        0.431941    0.433827    0.373631     0.005394
PD1619   PD        0.455381    0.479938    0.420921     0.005394
PD1620   PD        0.466334    0.435946    0.410778     0.005394
PD1621   PD        0.465414    0.470804    0.370354     0.005394
PD1622   PD        0.504203    0.423177    0.393313     0.005394
PD1623   PD        0.494591    0.454599    0.422945     0.005394
PD1624   PD        0.545696    0.435732    0.425721     0.005394
PD1625   PD        0.528934    0.470342    0.397219     0.005394
PD1626   PD        0.566050    0.447293    0.381178     0.005394
PD1627   PD        0.571467    0.474505    0.422308     0.005394
PD1628   PD        0.606102    0.434759    0.407268     0.005394
PD1629   PD        0.602495    0.470696    0.374111     0.005394
PD1630   PD        0.637291    0.437162    0.375269     0.005394
PD1631   PD        0.642618    0.455007    0.415406     0.005394
PD1632   PD        0.686947    0.436690    0.424771     0.005394
PD1633   PD        0.674403    0.469850    0.385399     0.005394
NI1634   NI        0.713563    0.416058    0.386537     0.004307
PD1635   PD        0.716171    0.474399    0.424247     0.005394
PD1636   PD        0.741533    0.434692    0.420693     0.005394
NI1637   NI        0.748217    0.447625    0.382186     0.004307
PD1638   PD        0.773298    0.434102    0.380882     0.005394
PD1639   PD        0.774813    0.469567    0.417888     0.005394
NI1640   NI        0.808227    0.437258    0.415408     0.004307
NI1641   NI        0.819767    0.477167    0.383697     0.004307
NI1642   NI        0.839957    0.448425    0.379071     0.004307
NI1643   NI        0.850712    0.477632    0.417573     0.004307
NI1644   NI        0.047166    0.478668    0.404060     0.004307
NI1645   NI        0.082376    0.504030    0.428289     0.004307
NI1646   NI        0.089217    0.501411    0.376209     0.004307
NI1647   NI        0.094675    0.537442    0.412757     0.004307
PD1648   PD        0.128307    0.503254    0.417281     0.005394
NI1649   NI        0.107450    0.528492    0.362478     0.004307
NI1650   NI        0.157294    0.501887    0.381605     0.004307
PD1651   PD        0.155388    0.538135    0.416390     0.005394
PD1652   PD        0.192193    0.480451    0.428930     0.005394
PD1653   PD        0.188244    0.537411    0.376943     0.005394
PD1654   PD        0.210850    0.514477    0.398989     0.005394
PD1655   PD        0.223086    0.541274    0.418432     0.005394
PD1656   PD        0.255208    0.497014    0.393104     0.005394
PD1657   PD        0.265399    0.549131    0.388734     0.005394
PD1658   PD        0.291748    0.504601    0.381789     0.005394
PD1659   PD        0.291186    0.539989    0.419652     0.005394
PD1660   PD        0.333358    0.489917    0.415248     0.005394
PD1661   PD        0.342699    0.535661    0.362958     0.005394
PD1662   PD        0.359916    0.506131    0.378952     0.005394
PD1663   PD        0.366046    0.518489    0.434119     0.005394
PD1664   PD        0.396517    0.508975    0.417913     0.005394
PD1665   PD        0.394255    0.537172    0.379856     0.005394
PD1666   PD        0.425267    0.488728    0.384399     0.005394
PD1667   PD        0.428898    0.542625    0.417795     0.005394
PD1668   PD        0.453815    0.506649    0.419455     0.005394
PD1669   PD        0.460259    0.542901    0.360307     0.005394
PD1670   PD        0.498837    0.503455    0.375053     0.005394
PD1671   PD        0.520965    0.554353    0.414941     0.005394
PD1672   PD        0.535160    0.508245    0.423800     0.005394
PD1673   PD        0.532491    0.535956    0.380020     0.005394
PD1674   PD        0.564637    0.501097    0.376967     0.005394
PD1675   PD        0.569572    0.537456    0.409170     0.005394
PD1676   PD        0.600698    0.501845    0.414704     0.005394
PD1677   PD        0.592412    0.540283    0.381165     0.005394
PD1678   PD        0.646265    0.491884    0.360905     0.005394
PD1679   PD        0.638885    0.531042    0.423565     0.005394
PD1680   PD        0.682267    0.508131    0.424433     0.005394
PD1681   PD        0.672969    0.537870    0.387629     0.005394
PD1682   PD        0.707248    0.503136    0.381757     0.005394
PD1683   PD        0.713407    0.541520    0.422314     0.005394
PD1684   PD        0.740020    0.503084    0.418727     0.005394
NI1685   NI        0.748432    0.519087    0.399111     0.004307
NI1686   NI        0.778074    0.502149    0.390078     0.004307
NI1687   NI        0.771797    0.539254    0.420969     0.004307
NI1688   NI        0.804979    0.487961    0.430892     0.004307
NI1689   NI        0.799154    0.544561    0.380301     0.004307
NI1690   NI        0.078757    0.570948    0.432652     0.004307
NI1691   NI        0.058803    0.601930    0.381281     0.004307
NI1692   NI        0.086923    0.576094    0.382776     0.004307
NI1693   NI        0.086941    0.605429    0.424140     0.004307
PD1694   PD        0.154807    0.574991    0.457336     0.005394
NI1695   NI        0.094538    0.632297    0.383932     0.004307
PD1696   PD        0.155974    0.576049    0.380495     0.005394
PD1697   PD        0.156401    0.610512    0.417950     0.005394
PD1698   PD        0.189431    0.575313    0.419831     0.005394
PD1699   PD        0.190441    0.608350    0.379789     0.005394
PD1700   PD        0.222951    0.573149    0.382166     0.005394
NI1701   NI        0.230745    0.624198    0.403128     0.004307
PD1702   PD        0.257608    0.574947    0.418016     0.005394
PD1703   PD        0.257056    0.608637    0.380985     0.005394
PD1704   PD        0.292390    0.573441    0.381441     0.005394
PD1705   PD        0.282389    0.619591    0.439537     0.005394
PD1706   PD        0.325534    0.572586    0.420088     0.005394
PD1707   PD        0.335367    0.601529    0.380556     0.005394
PD1708   PD        0.368848    0.571810    0.367064     0.005394
PD1709   PD        0.373317    0.609541    0.418687     0.005394
PD1710   PD        0.396326    0.572336    0.398877     0.005394
PD1711   PD        0.403855    0.613853    0.381062     0.005394
PD1712   PD        0.435388    0.578592    0.380011     0.005394
PD1713   PD        0.430610    0.608313    0.413570     0.005394
PD1714   PD        0.469704    0.576193    0.414158     0.005394
PD1715   PD        0.470018    0.611270    0.377823     0.005394
PD1716   PD        0.496559    0.571498    0.375696     0.005394
PD1717   PD        0.507171    0.610320    0.412760     0.005394
PD1718   PD        0.557546    0.575134    0.436852     0.005394
PD1719   PD        0.546393    0.614735    0.381373     0.005394
PD1720   PD        0.545594    0.589236    0.394949     0.005394
PD1721   PD        0.579015    0.618854    0.417122     0.005394
PD1722   PD        0.599251    0.576330    0.407560     0.005394
PD1723   PD        0.624912    0.608466    0.364899     0.005394
PD1724   PD        0.641302    0.571496    0.391047     0.005394
PD1725   PD        0.646087    0.611733    0.412558     0.005394
PD1726   PD        0.678274    0.574240    0.411812     0.005394
PD1727   PD        0.673200    0.607573    0.381792     0.005394
PD1728   PD        0.706490    0.571530    0.377811     0.005394
PD1729   PD        0.713075    0.608057    0.412485     0.005394
NI1730   NI        0.763567    0.558289    0.411408     0.004307
NI1731   NI        0.755732    0.618104    0.392435     0.004307
NI1732   NI        0.788552    0.592139    0.376622     0.004307
NI1733   NI        0.783357    0.607760    0.432253     0.004307
NI1734   NI        0.823447    0.584018    0.430542     0.004307
NI1735   NI        0.817492    0.604921    0.382579     0.004307
NI1736   NI        0.088484    0.640168    0.382917     0.004307
NI1737   NI        0.081691    0.645975    0.418799     0.004307
PD1738   PD        0.121588    0.643015    0.420500     0.005394
NI1739   NI        0.118210    0.699399    0.396120     0.004307
PD1740   PD        0.156112    0.644463    0.380375     0.005394
PD1741   PD        0.154171    0.678765    0.420733     0.005394
PD1742   PD        0.190177    0.645012    0.419713     0.005394
NI1743   NI        0.195639    0.670258    0.368390     0.004307
PD1744   PD        0.224308    0.643622    0.382049     0.005394
PD1745   PD        0.224979    0.677153    0.418665     0.005394
PD1746   PD        0.237065    0.632345    0.430721     0.005394
PD1747   PD        0.257114    0.676556    0.379818     0.005394
PD1748   PD        0.290848    0.642038    0.380683     0.005394
PD1749   PD        0.295647    0.676964    0.420867     0.005394
PD1750   PD        0.325721    0.641744    0.417209     0.005394
PD1751   PD        0.337253    0.681810    0.387664     0.005394
PD1752   PD        0.370279    0.647446    0.384030     0.005394
PD1753   PD        0.381264    0.675761    0.424255     0.005394
PD1754   PD        0.407306    0.648048    0.418747     0.005394
PD1755   PD        0.404643    0.681370    0.383080     0.005394
PD1756   PD        0.439006    0.646982    0.380239     0.005394
PD1757   PD        0.441035    0.680431    0.418260     0.005394
PD1758   PD        0.475091    0.646442    0.414504     0.005394
PD1759   PD        0.473607    0.679130    0.378691     0.005394
PD1760   PD        0.506899    0.642821    0.375299     0.005394
PD1761   PD        0.508309    0.680015    0.414448     0.005394
PD1762   PD        0.550008    0.655532    0.407236     0.005394
PD1763   PD        0.540806    0.677664    0.376740     0.005394
PD1764   PD        0.578201    0.650735    0.380707     0.005394
NI1765   NI        0.586677    0.682060    0.420848     0.004307
PD1766   PD        0.610478    0.642915    0.406209     0.005394
PD1767   PD        0.614078    0.683537    0.382570     0.005394
PD1768   PD        0.647499    0.648240    0.375912     0.005394
PD1769   PD        0.632729    0.677140    0.412902     0.005394
PD1770   PD        0.681260    0.643668    0.412456     0.005394
NI1771   NI        0.684390    0.678385    0.373201     0.004307
NI1772   NI        0.707125    0.640878    0.378546     0.004307
NI1773   NI        0.714272    0.678741    0.412415     0.004307
NI1774   NI        0.747863    0.640035    0.418750     0.004307
NI1775   NI        0.750930    0.676879    0.379700     0.004307
NI1776   NI        0.778110    0.646311    0.352504     0.004307
NI1777   NI        0.760333    0.682971    0.403245     0.004307
NI1778   NI        0.127925    0.714356    0.395352     0.004307
NI1779   NI        0.164423    0.700408    0.375611     0.004307
NI1780   NI        0.156057    0.745698    0.416842     0.004307
PD1781   PD        0.190136    0.710399    0.418168     0.005394
NI1782   NI        0.188815    0.746144    0.381757     0.004307
PD1783   PD        0.222459    0.711863    0.380287     0.005394
PD1784   PD        0.225119    0.746167    0.416365     0.005394
PD1785   PD        0.259567    0.711503    0.415317     0.005394
NI1786   NI        0.277572    0.766813    0.370726     0.004307
PD1787   PD        0.290352    0.711149    0.378955     0.005394
PD1788   PD        0.292150    0.745740    0.415234     0.005394
PD1789   PD        0.327198    0.710887    0.416962     0.005394
NI1790   NI        0.335793    0.741587    0.381258     0.004307
PD1791   PD        0.360114    0.707950    0.379385     0.005394
NI1792   NI        0.365423    0.764649    0.410591     0.004307
PD1793   PD        0.407444    0.715911    0.418779     0.005394
PD1794   PD        0.405926    0.751514    0.382369     0.005394
PD1795   PD        0.439502    0.714712    0.381145     0.005394
PD1796   PD        0.439508    0.749997    0.417924     0.005394
PD1797   PD        0.474156    0.714891    0.416279     0.005394
PD1798   PD        0.473326    0.749150    0.381482     0.005394
PD1799   PD        0.506335    0.713509    0.379414     0.005394
NI1800   NI        0.519746    0.737658    0.395968     0.004307
NI1801   NI        0.535615    0.717087    0.413458     0.004307
NI1802   NI        0.541858    0.750771    0.378804     0.004307
NI1803   NI        0.592095    0.721540    0.377724     0.004307
PD1804   PD        0.573266    0.748869    0.415855     0.005394
NI1805   NI        0.612382    0.720263    0.416889     0.004307
NI1806   NI        0.590585    0.729942    0.352103     0.004307
NI1807   NI        0.639501    0.711401    0.381147     0.004307
NI1808   NI        0.656577    0.748388    0.430077     0.004307
NI1809   NI        0.695209    0.724353    0.419120     0.004307
NI1810   NI        0.671216    0.743214    0.379847     0.004307
NI1811   NI        0.709756    0.703088    0.382624     0.004307
NI1812   NI        0.707145    0.742823    0.414005     0.004307
NI1813   NI        0.748321    0.725441    0.402238     0.004307
NI1814   NI        0.188263    0.779318    0.417605     0.004307
NI1815   NI        0.222352    0.800829    0.388732     0.004307
NI1816   NI        0.259040    0.780104    0.416945     0.004307
NI1817   NI        0.280091    0.826535    0.390360     0.004307
NI1818   NI        0.290524    0.780299    0.380023     0.004307
NI1819   NI        0.296170    0.813882    0.416521     0.004307
NI1820   NI        0.332737    0.774600    0.418506     0.004307
NI1821   NI        0.325912    0.834799    0.381394     0.004307
NI1822   NI        0.366030    0.779609    0.380911     0.004307
NI1823   NI        0.367809    0.810618    0.420727     0.004307
NI1824   NI        0.403406    0.781366    0.415797     0.004307
NI1825   NI        0.392603    0.841225    0.413076     0.004307
PD1826   PD        0.440307    0.784243    0.383252     0.005394
NI1827   NI        0.431403    0.827187    0.407632     0.004307
NI1828   NI        0.487121    0.775566    0.419712     0.004307
NI1829   NI        0.465565    0.806334    0.388775     0.004307
PD1830   PD        0.506532    0.785303    0.380355     0.005394
NI1831   NI        0.506362    0.818292    0.415830     0.004307
PD1832   PD        0.538174    0.781450    0.419535     0.005394
NI1833   NI        0.540621    0.820420    0.380374     0.004307
NI1834   NI        0.567833    0.773596    0.385632     0.004307
NI1835   NI        0.575301    0.812088    0.419126     0.004307
NI1836   NI        0.609661    0.778718    0.421170     0.004307
NI1837   NI        0.638828    0.808292    0.349687     0.004307
NI1838   NI        0.648815    0.775248    0.362467     0.004307
NI1839   NI        0.682919    0.780254    0.400640     0.004307
NI1840   NI        0.398205    0.847308    0.417633     0.004307
NI1841   NI        0.443074    0.870977    0.384354     0.004307
NI1842   NI        0.471988    0.852908    0.418379     0.004307
NI1843   NI        0.273509    0.051252    0.431000     0.004307
NI1844   NI        0.298132    0.059478    0.492178     0.004307
NI1845   NI        0.315597    0.064052    0.449739     0.004307
NI1846   NI        0.371657    0.036266    0.456568     0.004307
NI1847   NI        0.365997    0.056583    0.486323     0.004307
NI1848   NI        0.432509    0.014048    0.514427     0.004307
NI1849   NI        0.401118    0.058330    0.453466     0.004307
NI1850   NI        0.432815    0.024699    0.452701     0.004307
NI1851   NI        0.436221    0.058516    0.489256     0.004307
NI1852   NI        0.463829    0.027251    0.496089     0.004307
NI1853   NI        0.466239    0.056081    0.447812     0.004307
NI1854   NI        0.486285    0.019882    0.453732     0.004307
NI1855   NI        0.510594    0.040542    0.493310     0.004307
NI1856   NI        0.538933    0.061130    0.449264     0.004307
NI1857   NI        0.612075    0.043875    0.486370     0.004307
NI1858   NI        0.603788    0.063624    0.454389     0.004307
NI1859   NI        0.144032    0.125310    0.494100     0.004307
NI1860   NI        0.182473    0.095673    0.505164     0.004307
NI1861   NI        0.157980    0.110237    0.459235     0.004307
NI1862   NI        0.239585    0.077913    0.441895     0.004307
NI1863   NI        0.217034    0.081179    0.487475     0.004307
NI1864   NI        0.264832    0.094308    0.492805     0.004307
NI1865   NI        0.272808    0.111492    0.432353     0.004307
NI1866   NI        0.299180    0.094180    0.451924     0.004307
NI1867   NI        0.288021    0.139188    0.470676     0.004307
NI1868   NI        0.354257    0.074922    0.481238     0.004307
PD1869   PD        0.332118    0.127025    0.452042     0.005394
PD1870   PD        0.369480    0.092332    0.449755     0.005394
NI1871   NI        0.374521    0.134739    0.490383     0.004307
NI1872   NI        0.400656    0.092042    0.490235     0.004307
PD1873   PD        0.400759    0.125829    0.449166     0.005394
PD1874   PD        0.435666    0.093362    0.450284     0.005394
NI1875   NI        0.422932    0.126768    0.497343     0.004307
NI1876   NI        0.462032    0.074343    0.498877     0.004307
NI1877   NI        0.480331    0.103602    0.434199     0.004307
NI1878   NI        0.502641    0.090827    0.450755     0.004307
NI1879   NI        0.504616    0.130467    0.500364     0.004307
NI1880   NI        0.537896    0.091645    0.487630     0.004307
NI1881   NI        0.538959    0.119287    0.449411     0.004307
NI1882   NI        0.572811    0.093995    0.452392     0.004307
NI1883   NI        0.596645    0.121693    0.489183     0.004307
NI1884   NI        0.620677    0.084046    0.499377     0.004307
NI1885   NI        0.628847    0.104430    0.455832     0.004307
NI1886   NI        0.642499    0.094919    0.452064     0.004307
NI1887   NI        0.627618    0.124746    0.478582     0.004307
NI1888   NI        0.688823    0.069443    0.501397     0.004307
NI1889   NI        0.681249    0.121182    0.442016     0.004307
NI1890   NI        0.705353    0.129084    0.491665     0.004307
NI1891   NI        0.069879    0.199626    0.497338     0.004307
NI1892   NI        0.129261    0.143524    0.478775     0.004307
NI1893   NI        0.092768    0.160518    0.448607     0.004307
NI1894   NI        0.152083    0.165794    0.465364     0.004307
NI1895   NI        0.152071    0.196042    0.508517     0.004307
NI1896   NI        0.193759    0.160617    0.487547     0.004307
PD1897   PD        0.197662    0.195820    0.452151     0.005394
NI1898   NI        0.234945    0.159446    0.463132     0.004307
NI1899   NI        0.234699    0.200080    0.492460     0.004307
PD1900   PD        0.265384    0.161563    0.489064     0.005394
PD1901   PD        0.263845    0.195122    0.451251     0.005394
PD1902   PD        0.301270    0.167014    0.458168     0.005394
PD1903   PD        0.294621    0.195921    0.483577     0.005394
PD1904   PD        0.333723    0.161206    0.485861     0.005394
PD1905   PD        0.333755    0.196972    0.449296     0.005394
PD1906   PD        0.367934    0.159622    0.450710     0.005394
PD1907   PD        0.363026    0.181737    0.478097     0.005394
PD1908   PD        0.392824    0.148255    0.495146     0.005394
PD1909   PD        0.401863    0.194836    0.449738     0.005394
NI1910   NI        0.451818    0.168610    0.427826     0.004307
PD1911   PD        0.436552    0.195818    0.484722     0.005394
PD1912   PD        0.470865    0.161856    0.486104     0.005394
PD1913   PD        0.469280    0.194701    0.448324     0.005394
PD1914   PD        0.502231    0.161969    0.448337     0.005394
PD1915   PD        0.513394    0.186486    0.507394     0.005394
NI1916   NI        0.540332    0.159057    0.505711     0.004307
PD1917   PD        0.539392    0.191804    0.448305     0.005394
NI1918   NI        0.575694    0.144904    0.457176     0.004307
PD1919   PD        0.576567    0.184676    0.483510     0.005394
PD1920   PD        0.607009    0.166661    0.489739     0.005394
PD1921   PD        0.605234    0.198708    0.450383     0.005394
NI1922   NI        0.652487    0.148185    0.460770     0.004307
PD1923   PD        0.646230    0.188496    0.476533     0.005394
NI1924   NI        0.671737    0.164385    0.490351     0.004307
PD1925   PD        0.675116    0.197997    0.450856     0.005394
NI1926   NI        0.707091    0.163245    0.454295     0.004307
NI1927   NI        0.705111    0.196807    0.490581     0.004307
NI1928   NI        0.741895    0.163032    0.488977     0.004307
NI1929   NI        0.775898    0.167456    0.453689     0.004307
NI1930   NI        0.773898    0.194227    0.491771     0.004307
NI1931   NI        0.058554    0.262509    0.448471     0.004307
NI1932   NI        0.098355    0.226647    0.467117     0.004307
NI1933   NI        0.058878    0.245465    0.489930     0.004307
NI1934   NI        0.142668    0.208608    0.485783     0.004307
PD1935   PD        0.127407    0.262498    0.452772     0.005394
NI1936   NI        0.138369    0.231269    0.444361     0.004307
PD1937   PD        0.161698    0.262199    0.488823     0.005394
PD1938   PD        0.196799    0.230012    0.488247     0.005394
NI1939   NI        0.176406    0.257693    0.456452     0.004307
NI1940   NI        0.217859    0.234861    0.473762     0.004307
PD1941   PD        0.227908    0.263073    0.486649     0.005394
NI1942   NI        0.259335    0.216570    0.494371     0.004307
PD1943   PD        0.259076    0.257310    0.469537     0.005394
PD1944   PD        0.298273    0.226463    0.447251     0.005394
PD1945   PD        0.295168    0.266738    0.499404     0.005394
PD1946   PD        0.344026    0.220058    0.504503     0.005394
PD1947   PD        0.325600    0.244812    0.435841     0.005394
PD1948   PD        0.359882    0.215653    0.455529     0.005394
PD1949   PD        0.357716    0.262900    0.494936     0.005394
PD1950   PD        0.403932    0.229499    0.487514     0.005394
PD1951   PD        0.400602    0.262092    0.446727     0.005394
PD1952   PD        0.435568    0.228047    0.448892     0.005394
PD1953   PD        0.433806    0.267148    0.485331     0.005394
PD1954   PD        0.469453    0.229796    0.486470     0.005394
PD1955   PD        0.495449    0.244452    0.456211     0.005394
PD1956   PD        0.507532    0.210164    0.462002     0.005394
PD1957   PD        0.502971    0.258829    0.484743     0.005394
PD1958   PD        0.542575    0.231435    0.483011     0.005394
PD1959   PD        0.538044    0.263917    0.448996     0.005394
PD1960   PD        0.579747    0.250111    0.470117     0.005394
PD1961   PD        0.588547    0.270387    0.468686     0.005394
NI1962   NI        0.609689    0.216108    0.488779     0.004307
NI1963   NI        0.612703    0.277256    0.454203     0.004307
PD1964   PD        0.641361    0.231149    0.451770     0.005394
PD1965   PD        0.651017    0.266020    0.514745     0.005394
PD1966   PD        0.670295    0.225177    0.495106     0.005394
NI1967   NI        0.681633    0.269037    0.436041     0.004307
NI1968   NI        0.716668    0.234445    0.490326     0.004307
NI1969   NI        0.728747    0.256925    0.499634     0.004307
NI1970   NI        0.740077    0.232351    0.492015     0.004307
NI1971   NI        0.748586    0.265619    0.471902     0.004307
NI1972   NI        0.771667    0.213915    0.452420     0.004307
NI1973   NI        0.794157    0.257800    0.484011     0.004307
NI1974   NI        0.837998    0.268586    0.481558     0.004307
NI1975   NI        0.058127    0.296903    0.487428     0.004307
NI1976   NI        0.060266    0.330361    0.450210     0.004307
NI1977   NI        0.090649    0.294105    0.449144     0.004307
NI1978   NI        0.088118    0.332404    0.483858     0.004307
NI1979   NI        0.108715    0.292954    0.496872     0.004307
PD1980   PD        0.128218    0.329696    0.448246     0.005394
NI1981   NI        0.148828    0.286214    0.474103     0.004307
PD1982   PD        0.161110    0.330698    0.486018     0.005394
PD1983   PD        0.194767    0.296696    0.486032     0.005394
PD1984   PD        0.196899    0.329752    0.451556     0.005394
PD1985   PD        0.217964    0.278450    0.452929     0.005394
PD1986   PD        0.229555    0.330482    0.486657     0.005394
PD1987   PD        0.261214    0.298036    0.483741     0.005394
PD1988   PD        0.265651    0.331501    0.449373     0.005394
PD1989   PD        0.290551    0.297838    0.461556     0.005394
PD1990   PD        0.280888    0.312277    0.499491     0.005394
PD1991   PD        0.328221    0.301188    0.493556     0.005394
PD1992   PD        0.332443    0.327174    0.447159     0.005394
PD1993   PD        0.364167    0.296253    0.447743     0.005394
PD1994   PD        0.359931    0.332681    0.496556     0.005394
PD1995   PD        0.413736    0.302435    0.506901     0.005394
PD1996   PD        0.399168    0.332451    0.447865     0.005394
PD1997   PD        0.436565    0.305890    0.468279     0.005394
PD1998   PD        0.438554    0.336393    0.503229     0.005394
PD1999   PD        0.467580    0.299558    0.485992     0.005394
PD2000   PD        0.466477    0.341703    0.476306     0.005394
PD2001   PD        0.503149    0.300163    0.448187     0.005394
PD2002   PD        0.517347    0.333527    0.495411     0.005394
PD2003   PD        0.544333    0.282999    0.486364     0.005394
PD2004   PD        0.535633    0.333336    0.449257     0.005394
PD2005   PD        0.572197    0.299580    0.448954     0.005394
PD2006   PD        0.569956    0.332836    0.485631     0.005394
PD2007   PD        0.625645    0.294857    0.496051     0.005394
PD2008   PD        0.608735    0.328182    0.462625     0.005394
PD2009   PD        0.650364    0.304558    0.451688     0.005394
PD2010   PD        0.642166    0.333449    0.511577     0.005394
NI2011   NI        0.680683    0.308202    0.501366     0.004307
PD2012   PD        0.692518    0.325798    0.453135     0.005394
NI2013   NI        0.713597    0.284285    0.440127     0.004307
NI2014   NI        0.724603    0.329371    0.502141     0.004307
NI2015   NI        0.740555    0.300125    0.492748     0.004307
NI2016   NI        0.758612    0.340625    0.457537     0.004307
NI2017   NI        0.778771    0.301610    0.467172     0.004307
NI2018   NI        0.768213    0.312523    0.499362     0.004307
NI2019   NI        0.811185    0.304346    0.491208     0.004307
NI2020   NI        0.833782    0.302986    0.443160     0.004307
NI2021   NI        0.024001    0.364323    0.449238     0.004307
NI2022   NI        0.040066    0.388209    0.492310     0.004307
NI2023   NI        0.057059    0.361458    0.486637     0.004307
NI2024   NI        0.056127    0.400336    0.446585     0.004307
NI2025   NI        0.087769    0.372802    0.460253     0.004307
NI2026   NI        0.063704    0.403198    0.530644     0.004307
PD2027   PD        0.124368    0.362633    0.485246     0.005394
PD2028   PD        0.126667    0.399804    0.450539     0.005394
PD2029   PD        0.154597    0.360237    0.442154     0.005394
PD2030   PD        0.159968    0.400408    0.488886     0.005394
NI2031   NI        0.189981    0.371891    0.494542     0.004307
PD2032   PD        0.194041    0.401682    0.451724     0.005394
PD2033   PD        0.222552    0.367304    0.471121     0.005394
PD2034   PD        0.226114    0.401763    0.491002     0.005394
PD2035   PD        0.259115    0.367534    0.501772     0.005394
PD2036   PD        0.253700    0.379273    0.435458     0.005394
PD2037   PD        0.295202    0.368976    0.457381     0.005394
PD2038   PD        0.297917    0.401916    0.486504     0.005394
PD2039   PD        0.327792    0.368564    0.499314     0.005394
PD2040   PD        0.333632    0.399629    0.451399     0.005394
PD2041   PD        0.364793    0.365663    0.449498     0.005394
PD2042   PD        0.361754    0.403049    0.493366     0.005394
PD2043   PD        0.399810    0.362036    0.486540     0.005394
PD2044   PD        0.394245    0.399312    0.456764     0.005394
PD2045   PD        0.426439    0.344815    0.449578     0.005394
PD2046   PD        0.452745    0.415844    0.490583     0.005394
PD2047   PD        0.472728    0.376143    0.485842     0.005394
PD2048   PD        0.477290    0.404964    0.471901     0.005394
PD2049   PD        0.506473    0.352775    0.464337     0.005394
PD2050   PD        0.515063    0.404218    0.500514     0.005394
PD2051   PD        0.558964    0.348644    0.487093     0.005394
PD2052   PD        0.536020    0.401197    0.447856     0.005394
PD2053   PD        0.570763    0.357964    0.448245     0.005394
PD2054   PD        0.583847    0.405049    0.499038     0.005394
PD2055   PD        0.602603    0.369931    0.485570     0.005394
PD2056   PD        0.617954    0.403479    0.460632     0.005394
PD2057   PD        0.638343    0.364040    0.452391     0.005394
PD2058   PD        0.655780    0.401443    0.500230     0.005394
PD2059   PD        0.680356    0.358811    0.493689     0.005394
PD2060   PD        0.670834    0.396811    0.438417     0.005394
PD2061   PD        0.704830    0.366685    0.452744     0.005394
PD2062   PD        0.705910    0.399358    0.490050     0.005394
NI2063   NI        0.755306    0.358830    0.499653     0.004307
NI2064   NI        0.764563    0.393266    0.467317     0.004307
NI2065   NI        0.786967    0.373554    0.459415     0.004307
NI2066   NI        0.788278    0.409325    0.495166     0.004307
NI2067   NI        0.822901    0.374348    0.494958     0.004307
NI2068   NI        0.821287    0.407937    0.458900     0.004307
NI2069   NI        0.868979    0.394926    0.461022     0.004307
NI2070   NI        0.849258    0.399175    0.470415     0.004307
NI2071   NI        0.024371    0.434825    0.446538     0.004307
NI2072   NI        0.009428    0.486090    0.481221     0.004307
NI2073   NI        0.057288    0.434266    0.486989     0.004307
NI2074   NI        0.058969    0.467771    0.452514     0.004307
PD2075   PD        0.092267    0.432570    0.450750     0.005394
NI2076   NI        0.075585    0.476607    0.481127     0.004307
PD2077   PD        0.132057    0.419150    0.495592     0.005394
NI2078   NI        0.128054    0.454513    0.475095     0.004307
PD2079   PD        0.160252    0.432241    0.453961     0.005394
NI2080   NI        0.135586    0.463879    0.478431     0.004307
PD2081   PD        0.190135    0.436392    0.493474     0.005394
PD2082   PD        0.182812    0.442067    0.437659     0.005394
PD2083   PD        0.226309    0.438013    0.454265     0.005394
PD2084   PD        0.223406    0.472271    0.492180     0.005394
PD2085   PD        0.256621    0.439104    0.493946     0.005394
PD2086   PD        0.257800    0.472310    0.458010     0.005394
PD2087   PD        0.308838    0.455531    0.447841     0.005394
PD2088   PD        0.293624    0.472724    0.491741     0.005394
PD2089   PD        0.326083    0.437651    0.492710     0.005394
PD2090   PD        0.326875    0.472242    0.457808     0.005394
PD2091   PD        0.359655    0.436300    0.457600     0.005394
PD2092   PD        0.340631    0.476853    0.476643     0.005394
PD2093   PD        0.384675    0.424820    0.484400     0.005394
PD2094   PD        0.396862    0.467037    0.453547     0.005394
PD2095   PD        0.437505    0.439279    0.447558     0.005394
PD2096   PD        0.429150    0.469757    0.490920     0.005394
PD2097   PD        0.486850    0.449191    0.491301     0.005394
PD2098   PD        0.463262    0.469126    0.452168     0.005394
PD2099   PD        0.512966    0.434699    0.463195     0.005394
PD2100   PD        0.500195    0.484358    0.498605     0.005394
PD2101   PD        0.529638    0.434843    0.486552     0.005394
PD2102   PD        0.531983    0.473158    0.449492     0.005394
PD2103   PD        0.567317    0.433183    0.449602     0.005394
PD2104   PD        0.575460    0.476792    0.494167     0.005394
PD2105   PD        0.618282    0.436789    0.498244     0.005394
PD2106   PD        0.603789    0.478171    0.483699     0.005394
PD2107   PD        0.653301    0.433171    0.461671     0.005394
PD2108   PD        0.643642    0.458689    0.463625     0.005394
PD2109   PD        0.675085    0.435730    0.494573     0.005394
PD2110   PD        0.681117    0.472222    0.459340     0.005394
PD2111   PD        0.708533    0.431222    0.458598     0.005394
PD2112   PD        0.718533    0.476268    0.496811     0.005394
PD2113   PD        0.753890    0.442463    0.498382     0.005394
NI2114   NI        0.774897    0.500630    0.454621     0.004307
NI2115   NI        0.787186    0.443626    0.458985     0.004307
NI2116   NI        0.788291    0.456828    0.467554     0.004307
NI2117   NI        0.820364    0.444352    0.495803     0.004307
NI2118   NI        0.819206    0.487812    0.475207     0.004307
NI2119   NI        0.866130    0.424581    0.474517     0.004307
NI2120   NI        0.845977    0.471972    0.488156     0.004307
NI2121   NI        0.004997    0.514264    0.426535     0.004307
NI2122   NI        0.062864    0.501338    0.489696     0.004307
NI2123   NI        0.075295    0.544806    0.451232     0.004307
NI2124   NI        0.069715    0.499511    0.479723     0.004307
NI2125   NI        0.065502    0.545474    0.470272     0.004307
PD2126   PD        0.126211    0.503178    0.488868     0.005394
PD2127   PD        0.125019    0.537552    0.454156     0.005394
NI2128   NI        0.145431    0.507171    0.476956     0.004307
PD2129   PD        0.155344    0.540537    0.493174     0.005394
PD2130   PD        0.191380    0.508372    0.493824     0.005394
PD2131   PD        0.189138    0.542208    0.457699     0.005394
PD2132   PD        0.224289    0.506046    0.454383     0.005394
PD2133   PD        0.224323    0.540388    0.492049     0.005394
PD2134   PD        0.257624    0.507310    0.494254     0.005394
PD2135   PD        0.258724    0.541888    0.455988     0.005394
PD2136   PD        0.291828    0.505812    0.457393     0.005394
PD2137   PD        0.292871    0.541724    0.493416     0.005394
PD2138   PD        0.327040    0.505586    0.493442     0.005394
PD2139   PD        0.326571    0.540234    0.454999     0.005394
PD2140   PD        0.359837    0.504189    0.455040     0.005394
PD2141   PD        0.380479    0.541662    0.499867     0.005394
PD2142   PD        0.416918    0.510247    0.488973     0.005394
PD2143   PD        0.393948    0.537956    0.455528     0.005394
PD2144   PD        0.430062    0.504208    0.452756     0.005394
PD2145   PD        0.427904    0.538272    0.490440     0.005394
PD2146   PD        0.463768    0.505518    0.489670     0.005394
PD2147   PD        0.463807    0.539171    0.450115     0.005394
PD2148   PD        0.494165    0.503954    0.448122     0.005394
PD2149   PD        0.510584    0.529630    0.487073     0.005394
PD2150   PD        0.539522    0.505621    0.478174     0.005394
PD2151   PD        0.527397    0.540486    0.445102     0.005394
PD2152   PD        0.575632    0.510646    0.459433     0.005394
PD2153   PD        0.578128    0.541488    0.497926     0.005394
PD2154   PD        0.612896    0.506280    0.498850     0.005394
PD2155   PD        0.614103    0.538865    0.465585     0.005394
PD2156   PD        0.638637    0.508291    0.446711     0.005394
PD2157   PD        0.636619    0.534007    0.494184     0.005394
NI2158   NI        0.676692    0.516845    0.477654     0.004307
PD2159   PD        0.679297    0.545571    0.459565     0.005394
PD2160   PD        0.712381    0.509237    0.461528     0.005394
PD2161   PD        0.704405    0.556405    0.471829     0.005394
PD2162   PD        0.739997    0.503901    0.491797     0.005394
NI2163   NI        0.765613    0.530946    0.448243     0.004307
NI2164   NI        0.784964    0.512434    0.459772     0.004307
NI2165   NI        0.782036    0.541630    0.495199     0.004307
NI2166   NI        0.837201    0.498531    0.481494     0.004307
NI2167   NI        0.821271    0.533415    0.423601     0.004307
NI2168   NI        0.865110    0.490598    0.465690     0.004307
NI2169   NI        0.062940    0.565966    0.491097     0.004307
NI2170   NI        0.063874    0.642957    0.471719     0.004307
NI2171   NI        0.076472    0.592778    0.473579     0.004307
NI2172   NI        0.088123    0.608125    0.493901     0.004307
NI2173   NI        0.101731    0.577641    0.474716     0.004307
PD2174   PD        0.122179    0.608153    0.455107     0.005394
NI2175   NI        0.138865    0.593820    0.466543     0.004307
NI2176   NI        0.136591    0.606552    0.484470     0.004307
PD2177   PD        0.190568    0.576937    0.493931     0.005394
NI2178   NI        0.187720    0.604582    0.460278     0.004307
PD2179   PD        0.225439    0.575944    0.457257     0.005394
PD2180   PD        0.224189    0.610597    0.493007     0.005394
PD2181   PD        0.264042    0.590602    0.478006     0.005394
PD2182   PD        0.257458    0.609607    0.456656     0.005394
PD2183   PD        0.292224    0.574393    0.456423     0.005394
PD2184   PD        0.294069    0.609457    0.491798     0.005394
PD2185   PD        0.328480    0.573449    0.492527     0.005394
PD2186   PD        0.326942    0.609556    0.455271     0.005394
PD2187   PD        0.361628    0.573650    0.455056     0.005394
PD2188   PD        0.367403    0.623276    0.520883     0.005394
PD2189   PD        0.390482    0.590200    0.498473     0.005394
PD2190   PD        0.406268    0.615347    0.454461     0.005394
PD2191   PD        0.430622    0.571417    0.450934     0.005394
PD2192   PD        0.446095    0.617857    0.511434     0.005394
PD2193   PD        0.477749    0.588116    0.494324     0.005394
PD2194   PD        0.475385    0.608671    0.450493     0.005394
PD2195   PD        0.513164    0.581220    0.455073     0.005394
PD2196   PD        0.495052    0.606722    0.493445     0.005394
PD2197   PD        0.554511    0.547744    0.488778     0.005394
PD2198   PD        0.536352    0.602589    0.450978     0.005394
PD2199   PD        0.577643    0.577554    0.448281     0.005394
PD2200   PD        0.585208    0.612149    0.493828     0.005394
PD2201   PD        0.597316    0.575359    0.485992     0.005394
PD2202   PD        0.607711    0.605462    0.446820     0.005394
PD2203   PD        0.641812    0.575355    0.445929     0.005394
NI2204   NI        0.654374    0.608076    0.499803     0.004307
PD2205   PD        0.667567    0.570947    0.500513     0.005394
PD2206   PD        0.678314    0.610874    0.449656     0.005394
NI2207   NI        0.724703    0.586084    0.431601     0.004307
NI2208   NI        0.733182    0.634621    0.465902     0.004307
NI2209   NI        0.744455    0.571957    0.490788     0.004307
NI2210   NI        0.757176    0.616159    0.473429     0.004307
NI2211   NI        0.800648    0.566446    0.454135     0.004307
NI2212   NI        0.822232    0.636020    0.500219     0.004307
NI2213   NI        0.836360    0.546602    0.493861     0.004307
NI2214   NI        0.815042    0.613041    0.463568     0.004307
NI2215   NI        0.088246    0.643427    0.457368     0.004307
NI2216   NI        0.090010    0.678223    0.493198     0.004307
PD2217   PD        0.124566    0.641318    0.494603     0.005394
PD2218   PD        0.122550    0.676104    0.457961     0.005394
PD2219   PD        0.156156    0.641587    0.457007     0.005394
PD2220   PD        0.156957    0.679107    0.493215     0.005394
PD2221   PD        0.189665    0.644580    0.492988     0.005394
PD2222   PD        0.191618    0.679432    0.455150     0.005394
PD2223   PD        0.223776    0.643252    0.455691     0.005394
PD2224   PD        0.224374    0.678974    0.492063     0.005394
PD2225   PD        0.258203    0.642801    0.491640     0.005394
PD2226   PD        0.276398    0.679819    0.449104     0.005394
PD2227   PD        0.292699    0.642078    0.454247     0.005394
PD2228   PD        0.297798    0.662536    0.494761     0.005394
PD2229   PD        0.314788    0.651024    0.505395     0.005394
PD2230   PD        0.327989    0.677916    0.451713     0.005394
PD2231   PD        0.362957    0.641018    0.454775     0.005394
NI2232   NI        0.371131    0.693292    0.501468     0.004307
PD2233   PD        0.405285    0.634726    0.494699     0.005394
PD2234   PD        0.396158    0.678861    0.448230     0.005394
PD2235   PD        0.442313    0.645485    0.453222     0.005394
PD2236   PD        0.443334    0.663821    0.497227     0.005394
PD2237   PD        0.467160    0.644599    0.482833     0.005394
PD2238   PD        0.465121    0.674313    0.449471     0.005394
PD2239   PD        0.512012    0.637155    0.463101     0.005394
PD2240   PD        0.516457    0.679933    0.483212     0.005394
PD2241   PD        0.550209    0.646021    0.493977     0.005394
PD2242   PD        0.546433    0.685173    0.443529     0.005394
PD2243   PD        0.559651    0.642879    0.465287     0.005394
PD2244   PD        0.572555    0.683391    0.486586     0.005394
PD2245   PD        0.618858    0.643319    0.495841     0.005394
NI2246   NI        0.611533    0.677203    0.460115     0.004307
NI2247   NI        0.637568    0.663849    0.444258     0.004307
NI2248   NI        0.631865    0.677133    0.497662     0.004307
NI2249   NI        0.695132    0.622714    0.496443     0.004307
NI2250   NI        0.671205    0.672399    0.455026     0.004307
NI2251   NI        0.711799    0.646717    0.452064     0.004307
NI2252   NI        0.710523    0.676162    0.492236     0.004307
NI2253   NI        0.753088    0.661289    0.497244     0.004307
NI2254   NI        0.745187    0.677065    0.452720     0.004307
NI2255   NI        0.779910    0.645909    0.457843     0.004307
NI2256   NI        0.759008    0.668455    0.485436     0.004307
NI2257   NI        0.121465    0.711444    0.494403     0.004307
PD2258   PD        0.156727    0.712017    0.455440     0.005394
NI2259   NI        0.184946    0.755042    0.495379     0.004307
PD2260   PD        0.189772    0.712535    0.491997     0.005394
NI2261   NI        0.194908    0.746530    0.451513     0.004307
PD2262   PD        0.223955    0.712308    0.453774     0.005394
PD2263   PD        0.224658    0.746099    0.489016     0.005394
PD2264   PD        0.258651    0.711384    0.490449     0.005394
PD2265   PD        0.258429    0.745232    0.451604     0.005394
PD2266   PD        0.293897    0.711579    0.452664     0.005394
PD2267   PD        0.292096    0.746361    0.487341     0.005394
NI2268   NI        0.318246    0.696350    0.499921     0.004307
NI2269   NI        0.327089    0.729150    0.460354     0.004307
NI2270   NI        0.353687    0.734335    0.447717     0.004307
PD2271   PD        0.371882    0.745213    0.492132     0.005394
PD2272   PD        0.397857    0.710927    0.485360     0.005394
PD2273   PD        0.405721    0.750832    0.455586     0.005394
PD2274   PD        0.431495    0.708881    0.447832     0.005394
PD2275   PD        0.437656    0.740857    0.492256     0.005394
NI2276   NI        0.480584    0.733503    0.479344     0.004307
NI2277   NI        0.485255    0.772084    0.466873     0.004307
NI2278   NI        0.514816    0.723412    0.444142     0.004307
NI2279   NI        0.502578    0.764547    0.499738     0.004307
NI2280   NI        0.542104    0.722800    0.483877     0.004307
NI2281   NI        0.542641    0.763407    0.427604     0.004307
NI2282   NI        0.580258    0.719530    0.453203     0.004307
NI2283   NI        0.574968    0.748469    0.490722     0.004307
NI2284   NI        0.625452    0.725712    0.483139     0.004307
NI2285   NI        0.621865    0.747892    0.458686     0.004307
NI2286   NI        0.667141    0.718463    0.461640     0.004307
NI2287   NI        0.634404    0.741889    0.497270     0.004307
NI2288   NI        0.669449    0.710597    0.486209     0.004307
NI2289   NI        0.694063    0.742554    0.460508     0.004307
NI2290   NI        0.711598    0.711876    0.449909     0.004307
NI2291   NI        0.711328    0.751513    0.502971     0.004307
NI2292   NI        0.743049    0.709321    0.489780     0.004307
NI2293   NI        0.203064    0.773861    0.482931     0.004307
NI2294   NI        0.211472    0.756953    0.464450     0.004307
PD2295   PD        0.260775    0.780368    0.489477     0.005394
NI2296   NI        0.258047    0.814182    0.451148     0.004307
NI2297   NI        0.292776    0.781742    0.450341     0.004307
NI2298   NI        0.281653    0.836276    0.479227     0.004307
NI2299   NI        0.329849    0.779838    0.485456     0.004307
NI2300   NI        0.329734    0.814753    0.449773     0.004307
NI2301   NI        0.374255    0.786129    0.455628     0.004307
NI2302   NI        0.363912    0.816015    0.488332     0.004307
NI2303   NI        0.413832    0.781891    0.481181     0.004307
NI2304   NI        0.396909    0.813176    0.451310     0.004307
NI2305   NI        0.422178    0.775340    0.449578     0.004307
NI2306   NI        0.433250    0.810978    0.485763     0.004307
NI2307   NI        0.485185    0.780886    0.509442     0.004307
NI2308   NI        0.463904    0.808963    0.442524     0.004307
NI2309   NI        0.506347    0.784933    0.454094     0.004307
NI2310   NI        0.502610    0.810423    0.491995     0.004307
NI2311   NI        0.540560    0.780117    0.494444     0.004307
NI2312   NI        0.540025    0.815640    0.455343     0.004307
NI2313   NI        0.573119    0.783069    0.455564     0.004307
NI2314   NI        0.584232    0.796149    0.489023     0.004307
NI2315   NI        0.606722    0.775829    0.492754     0.004307
NI2316   NI        0.607128    0.811644    0.458264     0.004307
NI2317   NI        0.639730    0.776671    0.454413     0.004307
NI2318   NI        0.703850    0.790040    0.495876     0.004307
NI2319   NI        0.363039    0.847573    0.452169     0.004307
NI2320   NI        0.385396    0.857316    0.501670     0.004307
NI2321   NI        0.433797    0.843003    0.448859     0.004307
NI2322   NI        0.471742    0.840726    0.478762     0.004307
NI2323   NI        0.505216    0.846659    0.456554     0.004307
NI2324   NI        0.264095    0.026065    0.562221     0.004307
NI2325   NI        0.295448    0.059207    0.561321     0.004307
NI2326   NI        0.335774    0.059269    0.525810     0.004307
NI2327   NI        0.380661    0.059601    0.564029     0.004307
NI2328   NI        0.402674    0.048028    0.517979     0.004307
NI2329   NI        0.418547    0.020797    0.524197     0.004307
NI2330   NI        0.460743    0.038503    0.547894     0.004307
NI2331   NI        0.501319    0.040483    0.526586     0.004307
NI2332   NI        0.499807    0.061797    0.567835     0.004307
NI2333   NI        0.540129    0.062555    0.527291     0.004307
NI2334   NI        0.572685    0.041263    0.551011     0.004307
NI2335   NI        0.609869    0.058457    0.523682     0.004307
NI2336   NI        0.202214    0.131503    0.528238     0.004307
NI2337   NI        0.227446    0.094083    0.524601     0.004307
NI2338   NI        0.235404    0.122313    0.564312     0.004307
NI2339   NI        0.264181    0.091464    0.562811     0.004307
NI2340   NI        0.274989    0.116255    0.535814     0.004307
NI2341   NI        0.287641    0.087914    0.543167     0.004307
PD2342   PD        0.300193    0.130925    0.562858     0.005394
NI2343   NI        0.332988    0.103448    0.580850     0.004307
NI2344   NI        0.340194    0.111554    0.508563     0.004307
NI2345   NI        0.368127    0.094753    0.524208     0.004307
PD2346   PD        0.368692    0.127229    0.562556     0.005394
NI2347   NI        0.397654    0.092799    0.562571     0.004307
PD2348   PD        0.402503    0.129906    0.526375     0.005394
NI2349   NI        0.420462    0.081888    0.547636     0.004307
NI2350   NI        0.407496    0.097685    0.564538     0.004307
NI2351   NI        0.469788    0.094139    0.562233     0.004307
NI2352   NI        0.478565    0.111568    0.520586     0.004307
NI2353   NI        0.499953    0.088848    0.523658     0.004307
NI2354   NI        0.519824    0.116113    0.550626     0.004307
NI2355   NI        0.542502    0.077529    0.556562     0.004307
NI2356   NI        0.539182    0.114577    0.527110     0.004307
NI2357   NI        0.573091    0.094036    0.522625     0.004307
NI2358   NI        0.572352    0.125826    0.561418     0.004307
NI2359   NI        0.608657    0.091819    0.559142     0.004307
NI2360   NI        0.606218    0.124443    0.526764     0.004307
NI2361   NI        0.661799    0.078890    0.542402     0.004307
NI2362   NI        0.638874    0.130243    0.563626     0.004307
NI2363   NI        0.678797    0.122760    0.535544     0.004307
NI2364   NI        0.115842    0.214969    0.528656     0.004307
NI2365   NI        0.151408    0.170324    0.511898     0.004307
NI2366   NI        0.161585    0.196396    0.562807     0.004307
NI2367   NI        0.197223    0.163872    0.563700     0.004307
NI2368   NI        0.188546    0.184403    0.541848     0.004307
NI2369   NI        0.222046    0.150436    0.541996     0.004307
PD2370   PD        0.232348    0.196329    0.559869     0.005394
PD2371   PD        0.264441    0.159471    0.561888     0.005394
NI2372   NI        0.258617    0.195493    0.534441     0.004307
PD2373   PD        0.297476    0.162162    0.522188     0.005394
NI2374   NI        0.291713    0.198492    0.565818     0.004307
NI2375   NI        0.346385    0.140663    0.560216     0.004307
PD2376   PD        0.326784    0.191998    0.531275     0.005394
NI2377   NI        0.361804    0.165183    0.543010     0.004307
PD2378   PD        0.361577    0.194230    0.568235     0.005394
PD2379   PD        0.390715    0.158045    0.562134     0.005394
PD2380   PD        0.400959    0.194767    0.522166     0.005394
PD2381   PD        0.433131    0.165215    0.524869     0.005394
PD2382   PD        0.433099    0.182480    0.565181     0.005394
NI2383   NI        0.467834    0.153697    0.550867     0.004307
PD2384   PD        0.468700    0.196985    0.522631     0.005394
NI2385   NI        0.503963    0.167721    0.524130     0.004307
PD2386   PD        0.499390    0.194474    0.558726     0.005394
PD2387   PD        0.537672    0.160833    0.559685     0.005394
NI2388   NI        0.546083    0.180243    0.523645     0.004307
NI2389   NI        0.568971    0.151787    0.518644     0.004307
NI2390   NI        0.565616    0.178627    0.570955     0.004307
NI2391   NI        0.596981    0.144701    0.574266     0.004307
NI2392   NI        0.593581    0.192525    0.530936     0.004307
NI2393   NI        0.626912    0.154542    0.546500     0.004307
NI2394   NI        0.644014    0.191371    0.573923     0.004307
NI2395   NI        0.672243    0.160341    0.564609     0.004307
NI2396   NI        0.705184    0.198615    0.563198     0.004307
NI2397   NI        0.707855    0.163514    0.525524     0.004307
NI2398   NI        0.711964    0.190346    0.569570     0.004307
NI2399   NI        0.747988    0.187675    0.534712     0.004307
NI2400   NI        0.059168    0.268444    0.535268     0.004307
NI2401   NI        0.093029    0.228890    0.525708     0.004307
NI2402   NI        0.100268    0.270588    0.575610     0.004307
NI2403   NI        0.114558    0.220714    0.543437     0.004307
NI2404   NI        0.127117    0.262747    0.524706     0.004307
NI2405   NI        0.159519    0.230293    0.527013     0.004307
PD2406   PD        0.162781    0.265994    0.562314     0.005394
NI2407   NI        0.177930    0.236758    0.574263     0.004307
PD2408   PD        0.196614    0.264424    0.526165     0.005394
PD2409   PD        0.230747    0.233832    0.529669     0.005394
NI2410   NI        0.221491    0.256110    0.575820     0.004307
NI2411   NI        0.257370    0.231790    0.573973     0.004307
PD2412   PD        0.261855    0.262038    0.519439     0.005394
PD2413   PD        0.308576    0.237205    0.537546     0.005394
PD2414   PD        0.292203    0.264795    0.571688     0.005394
PD2415   PD        0.321558    0.211988    0.552066     0.005394
PD2416   PD        0.334500    0.264325    0.523204     0.005394
PD2417   PD        0.356468    0.229255    0.532905     0.005394
PD2418   PD        0.352890    0.248879    0.552995     0.005394
PD2419   PD        0.412501    0.226636    0.570783     0.005394
PD2420   PD        0.416835    0.270318    0.534941     0.005394
PD2421   PD        0.433557    0.232260    0.523669     0.005394
PD2422   PD        0.435542    0.262583    0.557951     0.005394
PD2423   PD        0.468336    0.231515    0.560987     0.005394
PD2424   PD        0.475691    0.259915    0.522341     0.005394
PD2425   PD        0.500376    0.230552    0.525326     0.005394
PD2426   PD        0.488710    0.256471    0.572559     0.005394
PD2427   PD        0.540146    0.218308    0.557457     0.005394
PD2428   PD        0.531512    0.262782    0.538513     0.005394
PD2429   PD        0.568283    0.232183    0.524435     0.005394
NI2430   NI        0.555928    0.251727    0.566201     0.004307
NI2431   NI        0.605482    0.213862    0.565962     0.004307
PD2432   PD        0.610599    0.263616    0.539679     0.005394
PD2433   PD        0.644521    0.226827    0.539014     0.005394
PD2434   PD        0.647193    0.262513    0.572309     0.005394
NI2435   NI        0.683760    0.236648    0.558067     0.004307
NI2436   NI        0.679751    0.258300    0.534236     0.004307
NI2437   NI        0.712593    0.224502    0.534081     0.004307
NI2438   NI        0.715360    0.257531    0.571827     0.004307
NI2439   NI        0.749143    0.222726    0.570871     0.004307
NI2440   NI        0.739389    0.262603    0.526637     0.004307
NI2441   NI        0.793884    0.237376    0.529678     0.004307
NI2442   NI        0.774888    0.266275    0.561825     0.004307
NI2443   NI        0.832430    0.249627    0.510106     0.004307
NI2444   NI        0.063071    0.292980    0.577062     0.004307
NI2445   NI        0.055973    0.328376    0.523045     0.004307
NI2446   NI        0.077728    0.274207    0.531387     0.004307
NI2447   NI        0.091648    0.331452    0.561742     0.004307
NI2448   NI        0.125374    0.270546    0.540305     0.004307
NI2449   NI        0.094510    0.305387    0.542957     0.004307
PD2450   PD        0.158910    0.296698    0.524199     0.005394
PD2451   PD        0.159134    0.332459    0.561705     0.005394
NI2452   NI        0.196140    0.296153    0.579809     0.004307
PD2453   PD        0.199019    0.311997    0.519548     0.005394
PD2454   PD        0.231853    0.297205    0.523105     0.005394
PD2455   PD        0.207817    0.348044    0.586188     0.005394
PD2456   PD        0.249619    0.287683    0.556394     0.005394
PD2457   PD        0.264063    0.325491    0.523068     0.005394
PD2458   PD        0.291572    0.299502    0.536803     0.005394
PD2459   PD        0.282458    0.311453    0.569182     0.005394
PD2460   PD        0.339695    0.290437    0.574731     0.005394
PD2461   PD        0.324415    0.320210    0.540224     0.005394
PD2462   PD        0.374049    0.289869    0.522798     0.005394
PD2463   PD        0.362894    0.331996    0.569105     0.005394
PD2464   PD        0.400350    0.284268    0.579148     0.005394
PD2465   PD        0.396972    0.332388    0.533960     0.005394
PD2466   PD        0.417363    0.294026    0.505583     0.005394
PD2467   PD        0.435435    0.342844    0.577095     0.005394
PD2468   PD        0.464044    0.293908    0.557501     0.005394
PD2469   PD        0.478893    0.324944    0.525111     0.005394
PD2470   PD        0.499919    0.301187    0.523585     0.005394
PD2471   PD        0.488497    0.326169    0.575359     0.005394
PD2472   PD        0.546690    0.299991    0.572869     0.005394
PD2473   PD        0.535013    0.319345    0.518730     0.005394
PD2474   PD        0.580731    0.281560    0.538129     0.005394
PD2475   PD        0.579440    0.319908    0.568066     0.005394
PD2476   PD        0.614444    0.298418    0.572387     0.005394
PD2477   PD        0.605101    0.330553    0.522459     0.005394
PD2478   PD        0.654732    0.293125    0.556098     0.005394
PD2479   PD        0.649692    0.330344    0.572254     0.005394
NI2480   NI        0.675748    0.301160    0.560983     0.004307
PD2481   PD        0.681495    0.326998    0.533293     0.005394
PD2482   PD        0.713507    0.290528    0.532017     0.005394
PD2483   PD        0.715950    0.325057    0.567458     0.005394
NI2484   NI        0.756252    0.305909    0.564771     0.004307
NI2485   NI        0.747582    0.343618    0.531228     0.004307
NI2486   NI        0.776857    0.282314    0.524476     0.004307
NI2487   NI        0.776433    0.335775    0.564022     0.004307
NI2488   NI        0.832592    0.321897    0.578525     0.004307
NI2489   NI        0.851292    0.363999    0.533364     0.004307
NI2490   NI        0.057827    0.367041    0.559830     0.004307
NI2491   NI        0.057053    0.399183    0.522844     0.004307
NI2492   NI        0.101187    0.354471    0.539969     0.004307
NI2493   NI        0.094792    0.403272    0.571001     0.004307
NI2494   NI        0.125131    0.364295    0.578243     0.004307
NI2495   NI        0.123520    0.397189    0.549088     0.004307
NI2496   NI        0.146846    0.359244    0.532032     0.004307
NI2497   NI        0.136871    0.420543    0.557931     0.004307
PD2498   PD        0.190987    0.343435    0.586783     0.005394
PD2499   PD        0.201590    0.397470    0.537694     0.005394
PD2500   PD        0.228636    0.364929    0.521912     0.005394
PD2501   PD        0.226507    0.391614    0.581975     0.005394
PD2502   PD        0.257376    0.351385    0.583891     0.005394
PD2503   PD        0.279848    0.389215    0.533185     0.005394
PD2504   PD        0.294877    0.362148    0.537367     0.005394
PD2505   PD        0.292270    0.402693    0.566019     0.005394
PD2506   PD        0.327473    0.360063    0.572723     0.005394
PD2507   PD        0.316236    0.401707    0.555206     0.005394
PD2508   PD        0.360387    0.366533    0.531758     0.005394
PD2509   PD        0.364757    0.403776    0.557427     0.005394
PD2510   PD        0.396037    0.368768    0.568543     0.005394
PD2511   PD        0.397848    0.397174    0.523004     0.005394
PD2512   PD        0.429842    0.366856    0.530735     0.005394
PD2513   PD        0.451053    0.392225    0.567213     0.005394
PD2514   PD        0.465775    0.367116    0.562273     0.005394
PD2515   PD        0.472737    0.407421    0.522806     0.005394
PD2516   PD        0.499655    0.370788    0.523046     0.005394
PD2517   PD        0.497337    0.401336    0.563222     0.005394
PD2518   PD        0.549921    0.367113    0.570396     0.005394
PD2519   PD        0.533986    0.399701    0.537071     0.005394
PD2520   PD        0.567978    0.369099    0.523122     0.005394
PD2521   PD        0.584500    0.401915    0.570541     0.005394
PD2522   PD        0.604619    0.372065    0.558668     0.005394
PD2523   PD        0.602298    0.406049    0.521147     0.005394
PD2524   PD        0.652561    0.364425    0.533464     0.005394
PD2525   PD        0.654591    0.397646    0.571758     0.005394
PD2526   PD        0.686152    0.362165    0.570647     0.005394
PD2527   PD        0.686506    0.399992    0.536307     0.005394
NI2528   NI        0.711921    0.374713    0.542394     0.004307
PD2529   PD        0.704428    0.408166    0.558433     0.005394
NI2530   NI        0.734893    0.363195    0.585899     0.004307
PD2531   PD        0.756103    0.407829    0.534515     0.005394
NI2532   NI        0.784243    0.360590    0.556151     0.004307
NI2533   NI        0.770789    0.401687    0.561651     0.004307
NI2534   NI        0.810595    0.369640    0.560285     0.004307
NI2535   NI        0.820578    0.406956    0.532150     0.004307
NI2536   NI        0.015775    0.452297    0.532180     0.004307
NI2537   NI        0.068757    0.444256    0.565270     0.004307
NI2538   NI        0.055347    0.482578    0.525844     0.004307
NI2539   NI        0.100459    0.434106    0.530009     0.004307
NI2540   NI        0.084883    0.484732    0.564460     0.004307
NI2541   NI        0.116402    0.433906    0.561218     0.004307
NI2542   NI        0.134128    0.464257    0.513070     0.004307
PD2543   PD        0.143503    0.457925    0.526474     0.005394
PD2544   PD        0.154182    0.463438    0.561738     0.005394
PD2545   PD        0.192996    0.436297    0.565407     0.005394
PD2546   PD        0.188617    0.459599    0.546694     0.005394
PD2547   PD        0.223898    0.438509    0.529449     0.005394
PD2548   PD        0.236236    0.463952    0.561362     0.005394
PD2549   PD        0.266755    0.436096    0.580835     0.005394
PD2550   PD        0.258640    0.473839    0.528667     0.005394
PD2551   PD        0.292135    0.436880    0.529094     0.005394
PD2552   PD        0.293159    0.471960    0.565055     0.005394
PD2553   PD        0.326632    0.435162    0.562528     0.005394
PD2554   PD        0.326289    0.470301    0.529035     0.005394
PD2555   PD        0.362003    0.436935    0.528750     0.005394
PD2556   PD        0.360953    0.470671    0.566124     0.005394
PD2557   PD        0.394156    0.436476    0.568859     0.005394
PD2558   PD        0.394559    0.470189    0.530164     0.005394
PD2559   PD        0.428156    0.426231    0.535240     0.005394
PD2560   PD        0.429295    0.470057    0.563973     0.005394
PD2561   PD        0.464623    0.435640    0.564236     0.005394
PD2562   PD        0.463888    0.467869    0.525977     0.005394
PD2563   PD        0.503800    0.444496    0.525980     0.005394
PD2564   PD        0.498597    0.468243    0.559361     0.005394
PD2565   PD        0.534772    0.444354    0.565808     0.005394
PD2566   PD        0.545518    0.482289    0.506337     0.005394
PD2567   PD        0.586538    0.436539    0.535390     0.005394
PD2568   PD        0.576412    0.466346    0.547934     0.005394
PD2569   PD        0.621790    0.434486    0.572514     0.005394
PD2570   PD        0.605309    0.479147    0.534302     0.005394
PD2571   PD        0.634587    0.441321    0.524173     0.005394
PD2572   PD        0.650865    0.473759    0.572134     0.005394
PD2573   PD        0.669657    0.442164    0.567228     0.005394
PD2574   PD        0.684101    0.472326    0.535602     0.005394
PD2575   PD        0.709209    0.431925    0.512430     0.005394
PD2576   PD        0.719151    0.475736    0.571372     0.005394
PD2577   PD        0.754346    0.441279    0.570237     0.005394
PD2578   PD        0.731274    0.471691    0.530154     0.005394
NI2579   NI        0.788616    0.442179    0.534601     0.004307
NI2580   NI        0.787276    0.476446    0.571289     0.004307
NI2581   NI        0.832651    0.422015    0.591744     0.004307
NI2582   NI        0.837271    0.476751    0.506957     0.004307
NI2583   NI        0.855451    0.440258    0.534745     0.004307
NI2584   NI        0.045741    0.512503    0.558178     0.004307
NI2585   NI        0.052512    0.534298    0.528368     0.004307
NI2586   NI        0.072084    0.483406    0.537208     0.004307
NI2587   NI        0.075859    0.529148    0.572914     0.004307
PD2588   PD        0.128418    0.504345    0.563933     0.005394
NI2589   NI        0.131764    0.557687    0.541663     0.004307
NI2590   NI        0.151182    0.502920    0.543333     0.004307
PD2591   PD        0.158444    0.543821    0.566437     0.005394
PD2592   PD        0.191389    0.506893    0.567041     0.005394
PD2593   PD        0.183860    0.533024    0.522046     0.005394
PD2594   PD        0.224580    0.507932    0.530134     0.005394
NI2595   NI        0.211667    0.530110    0.586902     0.004307
PD2596   PD        0.256797    0.506052    0.565817     0.005394
PD2597   PD        0.259784    0.542145    0.529176     0.005394
PD2598   PD        0.292506    0.507896    0.529805     0.005394
PD2599   PD        0.319604    0.527570    0.596610     0.005394
PD2600   PD        0.328531    0.507411    0.566456     0.005394
PD2601   PD        0.328052    0.541427    0.528568     0.005394
PD2602   PD        0.360984    0.505558    0.529741     0.005394
PD2603   PD        0.360871    0.538499    0.566606     0.005394
PD2604   PD        0.395728    0.505156    0.564663     0.005394
PD2605   PD        0.396789    0.538636    0.527994     0.005394
PD2606   PD        0.428675    0.503009    0.527240     0.005394
PD2607   PD        0.462785    0.539472    0.552384     0.005394
PD2608   PD        0.469627    0.514206    0.560327     0.005394
PD2609   PD        0.478003    0.540427    0.521592     0.005394
PD2610   PD        0.480340    0.495677    0.564266     0.005394
PD2611   PD        0.508292    0.550223    0.570279     0.005394
PD2612   PD        0.544822    0.518788    0.583352     0.005394
PD2613   PD        0.547604    0.539592    0.537395     0.005394
PD2614   PD        0.582528    0.505346    0.534430     0.005394
PD2615   PD        0.556666    0.529226    0.570208     0.005394
PD2616   PD        0.622781    0.512664    0.564572     0.005394
PD2617   PD        0.613215    0.540519    0.534558     0.005394
PD2618   PD        0.645275    0.505862    0.536323     0.005394
PD2619   PD        0.647509    0.540088    0.573457     0.005394
PD2620   PD        0.674264    0.486148    0.543744     0.005394
PD2621   PD        0.680156    0.540793    0.536543     0.005394
PD2622   PD        0.715694    0.507387    0.533333     0.005394
NI2623   NI        0.718801    0.541577    0.571910     0.004307
PD2624   PD        0.751223    0.508625    0.572005     0.005394
NI2625   NI        0.742153    0.546657    0.532698     0.004307
NI2626   NI        0.784663    0.529407    0.545728     0.004307
NI2627   NI        0.811169    0.529734    0.578888     0.004307
NI2628   NI        0.818999    0.510479    0.570382     0.004307
NI2629   NI        0.819482    0.543378    0.535585     0.004307
NI2630   NI        0.049353    0.573500    0.560037     0.004307
NI2631   NI        0.067604    0.615314    0.540676     0.004307
NI2632   NI        0.080043    0.572714    0.520106     0.004307
NI2633   NI        0.085588    0.602664    0.562819     0.004307
NI2634   NI        0.126797    0.574825    0.564785     0.004307
NI2635   NI        0.124308    0.608504    0.528214     0.004307
NI2636   NI        0.140684    0.583860    0.515904     0.004307
NI2637   NI        0.133276    0.608460    0.553944     0.004307
PD2638   PD        0.194942    0.578336    0.569655     0.005394
PD2639   PD        0.193706    0.611511    0.530884     0.005394
PD2640   PD        0.226640    0.578103    0.530631     0.005394
PD2641   PD        0.229481    0.613046    0.566452     0.005394
PD2642   PD        0.260499    0.579403    0.566577     0.005394
PD2643   PD        0.261371    0.610691    0.526364     0.005394
PD2644   PD        0.293747    0.576185    0.530747     0.005394
PD2645   PD        0.296459    0.611300    0.566366     0.005394
PD2646   PD        0.327645    0.574676    0.566704     0.005394
PD2647   PD        0.337011    0.618138    0.535148     0.005394
PD2648   PD        0.361759    0.574778    0.528794     0.005394
PD2649   PD        0.359142    0.609427    0.578585     0.005394
PD2650   PD        0.403796    0.588910    0.567409     0.005394
PD2651   PD        0.411621    0.628330    0.543498     0.005394
PD2652   PD        0.442633    0.587267    0.528062     0.005394
PD2653   PD        0.435616    0.641713    0.565578     0.005394
PD2654   PD        0.450947    0.581885    0.570716     0.005394
PD2655   PD        0.482416    0.607410    0.542443     0.005394
PD2656   PD        0.516074    0.569545    0.516174     0.005394
PD2657   PD        0.511916    0.598433    0.558606     0.005394
PD2658   PD        0.521914    0.594639    0.569378     0.005394
PD2659   PD        0.549657    0.612882    0.529832     0.005394
PD2660   PD        0.581225    0.576901    0.533923     0.005394
PD2661   PD        0.577220    0.608514    0.574627     0.005394
PD2662   PD        0.614970    0.573734    0.571791     0.005394
PD2663   PD        0.616661    0.609015    0.532334     0.005394
PD2664   PD        0.648353    0.575334    0.538454     0.005394
PD2665   PD        0.647546    0.609523    0.572256     0.005394
PD2666   PD        0.681551    0.570108    0.553874     0.005394
NI2667   NI        0.667395    0.606845    0.523503     0.004307
NI2668   NI        0.727312    0.575855    0.566330     0.004307
NI2669   NI        0.721263    0.597172    0.555513     0.004307
NI2670   NI        0.771053    0.605042    0.560585     0.004307
NI2671   NI        0.742737    0.591078    0.520531     0.004307
NI2672   NI        0.779976    0.571546    0.526221     0.004307
NI2673   NI        0.776344    0.611751    0.567055     0.004307
NI2674   NI        0.813456    0.580468    0.566711     0.004307
NI2675   NI        0.824563    0.588543    0.517337     0.004307
NI2676   NI        0.104282    0.673207    0.524001     0.004307
NI2677   NI        0.112706    0.630526    0.543271     0.004307
NI2678   NI        0.123411    0.677480    0.532299     0.004307
PD2679   PD        0.157882    0.645017    0.532216     0.005394
NI2680   NI        0.168114    0.656860    0.567578     0.004307
PD2681   PD        0.194033    0.646409    0.567818     0.005394
PD2682   PD        0.193565    0.679903    0.529512     0.005394
PD2683   PD        0.227764    0.645969    0.529562     0.005394
PD2684   PD        0.228502    0.679442    0.564475     0.005394
PD2685   PD        0.262786    0.645705    0.564078     0.005394
PD2686   PD        0.261745    0.679347    0.525669     0.005394
PD2687   PD        0.296979    0.643791    0.525821     0.005394
PD2688   PD        0.296357    0.679458    0.561791     0.005394
PD2689   PD        0.335204    0.653178    0.571655     0.005394
PD2690   PD        0.330129    0.679810    0.525306     0.005394
PD2691   PD        0.364739    0.643403    0.526304     0.005394
PD2692   PD        0.372120    0.671313    0.567989     0.005394
PD2693   PD        0.395507    0.642659    0.565961     0.005394
NI2694   NI        0.391111    0.681939    0.545871     0.004307
PD2695   PD        0.461301    0.631147    0.520634     0.005394
PD2696   PD        0.432772    0.673157    0.558484     0.005394
PD2697   PD        0.482731    0.652293    0.561671     0.005394
NI2698   NI        0.470104    0.688295    0.526683     0.004307
PD2699   PD        0.509950    0.638034    0.521119     0.005394
PD2700   PD        0.520077    0.680117    0.573428     0.005394
PD2701   PD        0.540800    0.637769    0.561008     0.005394
PD2702   PD        0.540283    0.695297    0.524961     0.005394
PD2703   PD        0.574082    0.662397    0.533369     0.005394
NI2704   NI        0.580868    0.682472    0.565713     0.004307
PD2705   PD        0.604315    0.641053    0.559173     0.005394
NI2706   NI        0.602516    0.673334    0.525879     0.004307
PD2707   PD        0.649566    0.644704    0.536170     0.005394
NI2708   NI        0.644823    0.677666    0.573983     0.004307
NI2709   NI        0.678916    0.645581    0.575466     0.004307
NI2710   NI        0.673913    0.673815    0.520317     0.004307
NI2711   NI        0.727131    0.671222    0.531437     0.004307
NI2712   NI        0.702386    0.680266    0.563607     0.004307
NI2713   NI        0.756642    0.642030    0.555803     0.004307
NI2714   NI        0.737793    0.676700    0.529259     0.004307
NI2715   NI        0.777594    0.641676    0.526462     0.004307
PD2716   PD        0.157875    0.713799    0.529839     0.005394
PD2717   PD        0.193683    0.714225    0.565158     0.005394
PD2718   PD        0.193426    0.748372    0.528018     0.005394
PD2719   PD        0.225940    0.713378    0.527770     0.005394
PD2720   PD        0.227477    0.748248    0.562593     0.005394
NI2721   NI        0.249124    0.724651    0.588274     0.004307
NI2722   NI        0.256765    0.752925    0.551668     0.004307
PD2723   PD        0.295160    0.714123    0.525257     0.005394
PD2724   PD        0.297467    0.748956    0.562273     0.005394
PD2725   PD        0.330585    0.712856    0.560315     0.005394
PD2726   PD        0.331437    0.747035    0.521335     0.005394
PD2727   PD        0.364877    0.712624    0.522684     0.005394
NI2728   NI        0.382460    0.751134    0.570382     0.004307
PD2729   PD        0.401269    0.709390    0.563046     0.005394
PD2730   PD        0.403055    0.740978    0.525658     0.005394
PD2731   PD        0.433514    0.704326    0.523769     0.005394
PD2732   PD        0.432748    0.744381    0.559533     0.005394
PD2733   PD        0.470420    0.711718    0.561373     0.005394
PD2734   PD        0.470720    0.738069    0.528610     0.005394
NI2735   NI        0.507304    0.714585    0.547292     0.004307
NI2736   NI        0.508828    0.763045    0.572709     0.004307
NI2737   NI        0.530309    0.725950    0.554707     0.004307
PD2738   PD        0.539326    0.742820    0.529238     0.005394
NI2739   NI        0.575112    0.711380    0.541717     0.004307
NI2740   NI        0.573401    0.741349    0.565464     0.004307
NI2741   NI        0.612894    0.714861    0.560470     0.004307
NI2742   NI        0.607532    0.758032    0.533718     0.004307
NI2743   NI        0.664550    0.719687    0.510598     0.004307
NI2744   NI        0.642720    0.770508    0.582316     0.004307
NI2745   NI        0.676150    0.706372    0.563386     0.004307
NI2746   NI        0.704844    0.741990    0.487194     0.004307
NI2747   NI        0.702710    0.711442    0.522853     0.004307
NI2748   NI        0.226518    0.782156    0.526433     0.004307
NI2749   NI        0.260402    0.781847    0.562577     0.004307
NI2750   NI        0.257989    0.824361    0.561139     0.004307
NI2751   NI        0.289828    0.788732    0.553567     0.004307
NI2752   NI        0.300386    0.807869    0.566460     0.004307
PD2753   PD        0.330700    0.781559    0.558915     0.005394
NI2754   NI        0.348309    0.820594    0.536867     0.004307
NI2755   NI        0.368352    0.778752    0.527873     0.004307
NI2756   NI        0.371151    0.806268    0.569425     0.004307
NI2757   NI        0.399960    0.778156    0.560482     0.004307
NI2758   NI        0.406984    0.824553    0.526329     0.004307
NI2759   NI        0.436510    0.775993    0.521765     0.004307
NI2760   NI        0.435245    0.810862    0.561552     0.004307
NI2761   NI        0.479945    0.795465    0.555211     0.004307
NI2762   NI        0.470495    0.822357    0.527909     0.004307
NI2763   NI        0.504855    0.778910    0.527004     0.004307
NI2764   NI        0.506332    0.830235    0.560136     0.004307
NI2765   NI        0.547087    0.776922    0.563836     0.004307
NI2766   NI        0.536569    0.811686    0.530149     0.004307
NI2767   NI        0.572118    0.783636    0.531461     0.004307
NI2768   NI        0.572141    0.809794    0.567723     0.004307
NI2769   NI        0.636044    0.789991    0.586687     0.004307
NI2770   NI        0.605644    0.813217    0.530520     0.004307
NI2771   NI        0.636358    0.770602    0.558039     0.004307
NI2772   NI        0.423665    0.867433    0.509399     0.004307
NI2773   NI        0.329636    0.040629    0.639018     0.004307
NI2774   NI        0.359239    0.050719    0.645611     0.004307
NI2775   NI        0.384434    0.046997    0.614504     0.004307
NI2776   NI        0.441519    0.025755    0.671529     0.004307
NI2777   NI        0.461741    0.042612    0.597559     0.004307
NI2778   NI        0.504099    0.055290    0.616677     0.004307
NI2779   NI        0.540132    0.062813    0.598716     0.004307
NI2780   NI        0.215137    0.144313    0.626220     0.004307
NI2781   NI        0.231582    0.125403    0.634964     0.004307
NI2782   NI        0.272714    0.099504    0.637508     0.004307
NI2783   NI        0.276561    0.108267    0.634887     0.004307
NI2784   NI        0.300371    0.093602    0.599189     0.004307
NI2785   NI        0.302302    0.124280    0.634540     0.004307
NI2786   NI        0.349065    0.078180    0.660937     0.004307
NI2787   NI        0.332372    0.108690    0.596106     0.004307
NI2788   NI        0.376713    0.093658    0.603594     0.004307
PD2789   PD        0.369953    0.126792    0.639076     0.005394
NI2790   NI        0.375857    0.057351    0.636977     0.004307
PD2791   PD        0.400524    0.127340    0.599128     0.005394
NI2792   NI        0.438965    0.098095    0.600958     0.004307
NI2793   NI        0.451173    0.109693    0.649569     0.004307
NI2794   NI        0.452195    0.070673    0.636083     0.004307
NI2795   NI        0.486846    0.128287    0.596402     0.004307
NI2796   NI        0.521703    0.096360    0.596231     0.004307
NI2797   NI        0.515344    0.114706    0.638148     0.004307
NI2798   NI        0.535943    0.099764    0.639411     0.004307
NI2799   NI        0.529681    0.117869    0.618005     0.004307
NI2800   NI        0.576349    0.092972    0.613636     0.004307
NI2801   NI        0.576091    0.127150    0.658511     0.004307
NI2802   NI        0.602620    0.094537    0.641362     0.004307
NI2803   NI        0.612953    0.124942    0.616395     0.004307
NI2804   NI        0.646678    0.123070    0.647986     0.004307
NI2805   NI        0.684856    0.128712    0.604698     0.004307
NI2806   NI        0.123973    0.183599    0.611474     0.004307
NI2807   NI        0.165080    0.162533    0.601868     0.004307
NI2808   NI        0.151257    0.179195    0.652693     0.004307
NI2809   NI        0.199188    0.161428    0.638529     0.004307
NI2810   NI        0.169477    0.173420    0.602604     0.004307
NI2811   NI        0.204711    0.150436    0.628240     0.004307
NI2812   NI        0.242905    0.189448    0.647018     0.004307
NI2813   NI        0.248471    0.165790    0.646956     0.004307
PD2814   PD        0.262997    0.190248    0.608001     0.005394
NI2815   NI        0.283591    0.148183    0.606848     0.004307
NI2816   NI        0.296648    0.189691    0.645254     0.004307
PD2817   PD        0.331648    0.157008    0.642818     0.005394
PD2818   PD        0.330643    0.192317    0.605423     0.005394
PD2819   PD        0.364550    0.160681    0.602894     0.005394
PD2820   PD        0.364745    0.191630    0.641238     0.005394
NI2821   NI        0.415932    0.135669    0.644503     0.004307
NI2822   NI        0.413396    0.166641    0.607832     0.004307
NI2823   NI        0.449186    0.159622    0.604667     0.004307
NI2824   NI        0.428169    0.181136    0.655585     0.004307
NI2825   NI        0.483359    0.146824    0.655779     0.004307
PD2826   PD        0.450084    0.191014    0.611008     0.005394
NI2827   NI        0.528290    0.149742    0.607141     0.004307
PD2828   PD        0.515268    0.182397    0.639916     0.005394
NI2829   NI        0.544992    0.158154    0.654176     0.004307
PD2830   PD        0.531102    0.183524    0.591676     0.005394
NI2831   NI        0.573511    0.161965    0.594128     0.004307
NI2832   NI        0.565652    0.187391    0.636221     0.004307
NI2833   NI        0.604192    0.146873    0.642700     0.004307
NI2834   NI        0.610747    0.194184    0.611401     0.004307
NI2835   NI        0.644315    0.161523    0.608605     0.004307
NI2836   NI        0.646066    0.194230    0.642860     0.004307
NI2837   NI        0.678895    0.158692    0.647010     0.004307
NI2838   NI        0.681059    0.190120    0.607472     0.004307
NI2839   NI        0.743208    0.131162    0.599401     0.004307
NI2840   NI        0.714423    0.191267    0.646071     0.004307
NI2841   NI        0.744492    0.185327    0.605323     0.004307
NI2842   NI        0.069549    0.276869    0.627055     0.004307
NI2843   NI        0.117025    0.211300    0.654059     0.004307
NI2844   NI        0.130355    0.263829    0.599770     0.004307
NI2845   NI        0.158980    0.217704    0.619077     0.004307
NI2846   NI        0.163825    0.263455    0.636676     0.004307
NI2847   NI        0.200835    0.233586    0.639947     0.004307
NI2848   NI        0.184557    0.256340    0.603383     0.004307
NI2849   NI        0.237155    0.229705    0.598414     0.004307
NI2850   NI        0.216863    0.276615    0.634072     0.004307
NI2851   NI        0.263106    0.224216    0.646445     0.004307
PD2852   PD        0.256205    0.269129    0.606127     0.005394
PD2853   PD        0.295425    0.226472    0.607612     0.005394
NI2854   NI        0.273878    0.268143    0.661777     0.004307
PD2855   PD        0.330944    0.226242    0.642229     0.005394
PD2856   PD        0.339390    0.262281    0.612268     0.005394
PD2857   PD        0.371581    0.231053    0.597037     0.005394
PD2858   PD        0.362511    0.266253    0.658405     0.005394
PD2859   PD        0.398250    0.228198    0.639986     0.005394
PD2860   PD        0.401280    0.265444    0.596709     0.005394
NI2861   NI        0.451309    0.227016    0.606227     0.004307
PD2862   PD        0.434676    0.260869    0.632777     0.005394
PD2863   PD        0.466543    0.229544    0.632779     0.005394
PD2864   PD        0.469015    0.265416    0.597282     0.005394
NI2865   NI        0.510073    0.223169    0.613313     0.004307
PD2866   PD        0.506308    0.267912    0.632179     0.005394
PD2867   PD        0.547762    0.228392    0.649603     0.005394
PD2868   PD        0.546154    0.264757    0.609215     0.005394
NI2869   NI        0.577641    0.231846    0.610971     0.004307
NI2870   NI        0.579844    0.251654    0.654730     0.004307
PD2871   PD        0.612503    0.228541    0.645753     0.005394
NI2872   NI        0.623744    0.263861    0.614114     0.004307
NI2873   NI        0.638685    0.211914    0.603941     0.004307
PD2874   PD        0.646053    0.263007    0.644970     0.005394
PD2875   PD        0.681079    0.224856    0.644701     0.005394
NI2876   NI        0.676958    0.242663    0.599401     0.004307
NI2877   NI        0.714064    0.223813    0.607861     0.004307
NI2878   NI        0.716400    0.258694    0.643551     0.004307
NI2879   NI        0.762419    0.224274    0.627849     0.004307
NI2880   NI        0.751266    0.257787    0.606566     0.004307
NI2881   NI        0.773725    0.269602    0.638877     0.004307
NI2882   NI        0.048988    0.318580    0.616209     0.004307
NI2883   NI        0.093414    0.301066    0.614686     0.004307
NI2884   NI        0.098690    0.340738    0.640927     0.004307
NI2885   NI        0.124904    0.310616    0.650258     0.004307
NI2886   NI        0.120809    0.340006    0.621586     0.004307
NI2887   NI        0.140774    0.263920    0.588859     0.004307
NI2888   NI        0.164931    0.331070    0.635586     0.004307
NI2889   NI        0.182947    0.283407    0.647547     0.004307
NI2890   NI        0.202824    0.348301    0.608735     0.004307
PD2891   PD        0.238365    0.312682    0.598367     0.005394
PD2892   PD        0.230898    0.336780    0.648958     0.005394
PD2893   PD        0.252622    0.304353    0.644242     0.005394
PD2894   PD        0.266821    0.307049    0.597096     0.005394
NI2895   NI        0.285570    0.282006    0.618098     0.004307
PD2896   PD        0.300669    0.328118    0.649353     0.005394
PD2897   PD        0.330598    0.295452    0.646766     0.005394
PD2898   PD        0.333600    0.329443    0.612721     0.005394
PD2899   PD        0.375316    0.314170    0.596852     0.005394
PD2900   PD        0.368894    0.326553    0.648174     0.005394
PD2901   PD        0.392738    0.299483    0.643990     0.005394
PD2902   PD        0.401118    0.344782    0.612800     0.005394
PD2903   PD        0.416337    0.289082    0.595539     0.005394
PD2904   PD        0.442104    0.333972    0.633366     0.005394
PD2905   PD        0.477937    0.301066    0.646811     0.005394
PD2906   PD        0.473641    0.321935    0.597374     0.005394
PD2907   PD        0.513895    0.301252    0.608281     0.005394
PD2908   PD        0.494324    0.343488    0.639762     0.005394
PD2909   PD        0.552335    0.275931    0.622636     0.005394
PD2910   PD        0.551030    0.332883    0.606311     0.005394
PD2911   PD        0.573499    0.315153    0.594118     0.005394
PD2912   PD        0.567936    0.338812    0.643227     0.005394
PD2913   PD        0.614574    0.297996    0.646153     0.005394
PD2914   PD        0.618397    0.331572    0.610252     0.005394
PD2915   PD        0.647715    0.295330    0.608073     0.005394
PD2916   PD        0.649887    0.330708    0.644456     0.005394
PD2917   PD        0.681486    0.294281    0.643678     0.005394
PD2918   PD        0.682158    0.325331    0.604401     0.005394
PD2919   PD        0.717473    0.292062    0.607275     0.005394
NI2920   NI        0.718138    0.329752    0.642694     0.004307
NI2921   NI        0.725711    0.294426    0.650378     0.004307
NI2922   NI        0.753252    0.326071    0.611267     0.004307
NI2923   NI        0.783980    0.290183    0.605426     0.004307
NI2924   NI        0.808913    0.344519    0.623945     0.004307
NI2925   NI        0.793635    0.334417    0.589654     0.004307
NI2926   NI        0.054393    0.389700    0.662444     0.004307
NI2927   NI        0.051102    0.399842    0.592769     0.004307
NI2928   NI        0.090666    0.367706    0.596191     0.004307
NI2929   NI        0.089946    0.404188    0.641736     0.004307
NI2930   NI        0.125402    0.377036    0.628064     0.004307
NI2931   NI        0.126724    0.396579    0.608711     0.004307
NI2932   NI        0.158492    0.367473    0.596265     0.004307
NI2933   NI        0.167661    0.402213    0.640992     0.004307
PD2934   PD        0.191285    0.363023    0.635745     0.005394
PD2935   PD        0.196228    0.406019    0.615249     0.005394
PD2936   PD        0.203005    0.360187    0.608403     0.005394
PD2937   PD        0.232382    0.397930    0.650832     0.005394
PD2938   PD        0.254376    0.375974    0.655467     0.005394
PD2939   PD        0.250899    0.409882    0.622035     0.005394
PD2940   PD        0.296881    0.362658    0.611364     0.005394
PD2941   PD        0.293185    0.400065    0.641017     0.005394
PD2942   PD        0.327754    0.367933    0.641485     0.005394
PD2943   PD        0.346467    0.412084    0.592510     0.005394
PD2944   PD        0.359797    0.368475    0.603978     0.005394
PD2945   PD        0.358643    0.403319    0.641009     0.005394
PD2946   PD        0.402106    0.364557    0.633205     0.005394
PD2947   PD        0.400985    0.393738    0.612705     0.005394
PD2948   PD        0.439929    0.366578    0.621042     0.005394
PD2949   PD        0.437398    0.408892    0.641935     0.005394
PD2950   PD        0.483395    0.364448    0.643641     0.005394
PD2951   PD        0.464252    0.401347    0.602158     0.005394
PD2952   PD        0.502604    0.382002    0.611174     0.005394
PD2953   PD        0.512151    0.398844    0.652271     0.005394
PD2954   PD        0.568888    0.364472    0.639496     0.005394
PD2955   PD        0.550143    0.400551    0.607798     0.005394
PD2956   PD        0.567922    0.374689    0.607583     0.005394
PD2957   PD        0.584916    0.402762    0.643935     0.005394
PD2958   PD        0.616832    0.367442    0.644832     0.005394
PD2959   PD        0.620851    0.399199    0.608754     0.005394
PD2960   PD        0.650788    0.363915    0.608971     0.005394
PD2961   PD        0.651632    0.402019    0.643565     0.005394
NI2962   NI        0.676234    0.366883    0.629677     0.004307
PD2963   PD        0.671331    0.401938    0.595058     0.005394
NI2964   NI        0.732686    0.382284    0.629686     0.004307
NI2965   NI        0.708490    0.392826    0.624322     0.004307
NI2966   NI        0.761157    0.342867    0.625560     0.004307
NI2967   NI        0.753009    0.405213    0.606767     0.004307
NI2968   NI        0.772237    0.371027    0.611787     0.004307
NI2969   NI        0.786633    0.404832    0.643777     0.004307
NI2970   NI        0.820157    0.361505    0.638174     0.004307
NI2971   NI        0.814692    0.401089    0.601219     0.004307
NI2972   NI        0.059282    0.436238    0.661877     0.004307
NI2973   NI        0.066869    0.464476    0.601635     0.004307
NI2974   NI        0.101636    0.433601    0.599680     0.004307
NI2975   NI        0.089917    0.463107    0.636027     0.004307
NI2976   NI        0.099474    0.452474    0.638887     0.004307
NI2977   NI        0.111374    0.479130    0.603288     0.004307
NI2978   NI        0.158924    0.431907    0.599481     0.004307
NI2979   NI        0.166842    0.477364    0.646884     0.004307
NI2980   NI        0.180703    0.434069    0.653193     0.004307
PD2981   PD        0.195631    0.454856    0.612937     0.005394
PD2982   PD        0.223042    0.439674    0.604343     0.005394
NI2983   NI        0.226138    0.464066    0.652538     0.004307
PD2984   PD        0.263508    0.434500    0.657429     0.005394
PD2985   PD        0.257974    0.473335    0.603000     0.005394
PD2986   PD        0.300065    0.426118    0.602078     0.005394
PD2987   PD        0.293906    0.469506    0.638629     0.005394
PD2988   PD        0.334555    0.455529    0.659835     0.005394
PD2989   PD        0.331210    0.459561    0.618877     0.005394
PD2990   PD        0.360398    0.433913    0.599802     0.005394
PD2991   PD        0.373603    0.448751    0.672178     0.005394
PD2992   PD        0.395606    0.435186    0.636921     0.005394
PD2993   PD        0.395400    0.471157    0.602320     0.005394
PD2994   PD        0.430527    0.435457    0.600298     0.005394
PD2995   PD        0.429295    0.469654    0.638019     0.005394
PD2996   PD        0.460236    0.427649    0.645124     0.005394
PD2997   PD        0.480663    0.466064    0.603829     0.005394
PD2998   PD        0.517353    0.433271    0.600900     0.005394
PD2999   PD        0.515329    0.470639    0.651179     0.005394
PD3000   PD        0.543826    0.435474    0.656095     0.005394
PD3001   PD        0.548729    0.468347    0.608333     0.005394
PD3002   PD        0.565158    0.423042    0.600367     0.005394
PD3003   PD        0.583579    0.452440    0.634169     0.005394
PD3004   PD        0.616465    0.434905    0.644226     0.005394
PD3005   PD        0.618913    0.468203    0.607895     0.005394
PD3006   PD        0.635738    0.434532    0.597060     0.005394
PD3007   PD        0.651189    0.468955    0.648020     0.005394
PD3008   PD        0.687137    0.437636    0.644819     0.005394
PD3009   PD        0.685737    0.471968    0.608098     0.005394
NI3010   NI        0.727049    0.436829    0.631088     0.004307
PD3011   PD        0.718652    0.473584    0.645949     0.005394
NI3012   NI        0.749716    0.432586    0.665605     0.004307
PD3013   PD        0.753227    0.474014    0.608672     0.005394
NI3014   NI        0.789192    0.442519    0.608067     0.004307
NI3015   NI        0.792001    0.450895    0.679816     0.004307
NI3016   NI        0.821384    0.439479    0.643420     0.004307
NI3017   NI        0.821633    0.476817    0.609016     0.004307
NI3018   NI        0.063534    0.505107    0.640593     0.004307
NI3019   NI        0.057909    0.547041    0.616188     0.004307
NI3020   NI        0.069496    0.506937    0.610292     0.004307
NI3021   NI        0.098601    0.537177    0.639248     0.004307
NI3022   NI        0.118959    0.510776    0.640869     0.004307
NI3023   NI        0.116449    0.538432    0.595340     0.004307
NI3024   NI        0.151999    0.504387    0.592677     0.004307
NI3025   NI        0.142363    0.551317    0.636068     0.004307
NI3026   NI        0.198670    0.490332    0.647968     0.004307
NI3027   NI        0.175289    0.556034    0.608107     0.004307
PD3028   PD        0.218686    0.484794    0.602458     0.005394
PD3029   PD        0.226083    0.545650    0.642563     0.005394
PD3030   PD        0.260827    0.499586    0.657139     0.005394
PD3031   PD        0.259363    0.539862    0.604190     0.005394
PD3032   PD        0.287129    0.494171    0.611389     0.005394
PD3033   PD        0.295936    0.545157    0.639996     0.005394
PD3034   PD        0.326735    0.502813    0.640134     0.005394
PD3035   PD        0.327121    0.538891    0.604611     0.005394
PD3036   PD        0.367064    0.516359    0.596309     0.005394
PD3037   PD        0.363678    0.540626    0.638504     0.005394
PD3038   PD        0.395985    0.504737    0.638943     0.005394
PD3039   PD        0.396202    0.539349    0.600928     0.005394
PD3040   PD        0.449745    0.504731    0.611619     0.005394
PD3041   PD        0.429387    0.539661    0.637538     0.005394
PD3042   PD        0.463385    0.504263    0.634268     0.005394
PD3043   PD        0.475603    0.545580    0.620227     0.005394
PD3044   PD        0.498240    0.506699    0.597915     0.005394
PD3045   PD        0.509305    0.538068    0.655633     0.005394
PD3046   PD        0.535164    0.503718    0.631305     0.005394
PD3047   PD        0.561721    0.553080    0.607094     0.005394
PD3048   PD        0.565052    0.509880    0.593392     0.005394
PD3049   PD        0.580160    0.537606    0.644588     0.005394
PD3050   PD        0.614902    0.503366    0.643145     0.005394
PD3051   PD        0.602106    0.541298    0.582452     0.005394
PD3052   PD        0.632454    0.510745    0.596550     0.005394
PD3053   PD        0.648850    0.538917    0.645819     0.005394
PD3054   PD        0.683222    0.506721    0.644633     0.005394
NI3055   NI        0.665210    0.540373    0.614693     0.004307
PD3056   PD        0.717221    0.507602    0.608798     0.005394
PD3057   PD        0.718019    0.541770    0.647936     0.005394
PD3058   PD        0.752080    0.506854    0.645643     0.005394
NI3059   NI        0.743871    0.555379    0.632370     0.004307
NI3060   NI        0.773693    0.501897    0.600422     0.004307
NI3061   NI        0.785620    0.544055    0.648047     0.004307
NI3062   NI        0.824132    0.515668    0.658097     0.004307
NI3063   NI        0.811788    0.549009    0.595131     0.004307
NI3064   NI        0.099000    0.606624    0.587723     0.004307
NI3065   NI        0.094627    0.603609    0.640455     0.004307
NI3066   NI        0.132728    0.570095    0.638046     0.004307
NI3067   NI        0.112231    0.623658    0.596857     0.004307
NI3068   NI        0.136648    0.582581    0.587741     0.004307
NI3069   NI        0.152008    0.605137    0.669325     0.004307
NI3070   NI        0.190588    0.594903    0.658305     0.004307
PD3071   PD        0.196443    0.611441    0.605152     0.005394
NI3072   NI        0.221750    0.566606    0.621166     0.004307
PD3073   PD        0.231667    0.615103    0.642909     0.005394
PD3074   PD        0.262699    0.580766    0.639767     0.005394
PD3075   PD        0.255537    0.597979    0.608088     0.005394
PD3076   PD        0.296590    0.577105    0.604067     0.005394
PD3077   PD        0.298151    0.614572    0.638661     0.005394
PD3078   PD        0.332017    0.579019    0.637690     0.005394
PD3079   PD        0.331057    0.611623    0.601009     0.005394
PD3080   PD        0.376270    0.583062    0.579040     0.005394
PD3081   PD        0.368361    0.613243    0.637793     0.005394
PD3082   PD        0.412238    0.571011    0.635847     0.005394
PD3083   PD        0.395678    0.608444    0.600939     0.005394
PD3084   PD        0.452300    0.561665    0.611404     0.005394
PD3085   PD        0.433524    0.615927    0.649535     0.005394
PD3086   PD        0.465504    0.580659    0.651805     0.005394
PD3087   PD        0.461246    0.609100    0.609284     0.005394
PD3088   PD        0.496100    0.568631    0.619049     0.005394
PD3089   PD        0.502641    0.606576    0.635442     0.005394
PD3090   PD        0.543416    0.571286    0.648220     0.005394
PD3091   PD        0.544746    0.606790    0.611315     0.005394
PD3092   PD        0.579882    0.574207    0.610728     0.005394
PD3093   PD        0.578324    0.605646    0.646671     0.005394
PD3094   PD        0.614326    0.572725    0.646513     0.005394
PD3095   PD        0.612738    0.608133    0.608996     0.005394
PD3096   PD        0.646444    0.574574    0.609372     0.005394
NI3097   NI        0.639950    0.607286    0.622403     0.004307
PD3098   PD        0.683243    0.573929    0.644792     0.005394
PD3099   PD        0.680140    0.610765    0.610185     0.005394
NI3100   NI        0.703341    0.576267    0.597864     0.004307
PD3101   PD        0.715044    0.610106    0.647315     0.005394
PD3102   PD        0.750272    0.576294    0.645051     0.005394
NI3103   NI        0.748515    0.612334    0.608736     0.004307
NI3104   NI        0.770960    0.572999    0.599904     0.004307
NI3105   NI        0.783598    0.611067    0.649030     0.004307
NI3106   NI        0.127437    0.641141    0.642078     0.004307
NI3107   NI        0.136356    0.663600    0.606079     0.004307
NI3108   NI        0.182315    0.653359    0.614700     0.004307
NI3109   NI        0.161762    0.680437    0.639718     0.004307
NI3110   NI        0.183715    0.664005    0.616411     0.004307
NI3111   NI        0.208359    0.702318    0.599054     0.004307
PD3112   PD        0.229635    0.645630    0.602282     0.005394
NI3113   NI        0.189499    0.685902    0.644784     0.004307
PD3114   PD        0.264212    0.649650    0.638242     0.005394
PD3115   PD        0.264071    0.682282    0.600252     0.005394
PD3116   PD        0.297271    0.646616    0.600437     0.005394
PD3117   PD        0.299607    0.682747    0.635276     0.005394
NI3118   NI        0.326769    0.661285    0.642943     0.004307
PD3119   PD        0.342322    0.663003    0.610623     0.005394
PD3120   PD        0.364302    0.646864    0.600196     0.005394
NI3121   NI        0.368757    0.683853    0.648117     0.004307
PD3122   PD        0.399228    0.649057    0.648171     0.005394
PD3123   PD        0.408126    0.675182    0.600674     0.005394
NI3124   NI        0.455615    0.639597    0.611813     0.004307
PD3125   PD        0.432040    0.682460    0.642781     0.005394
NI3126   NI        0.463541    0.651205    0.643710     0.004307
PD3127   PD        0.456450    0.670708    0.599380     0.005394
PD3128   PD        0.501004    0.638804    0.588943     0.005394
NI3129   NI        0.490490    0.675143    0.655396     0.004307
PD3130   PD        0.544292    0.641070    0.647455     0.005394
PD3131   PD        0.534883    0.672114    0.596896     0.005394
NI3132   NI        0.576071    0.660415    0.612432     0.004307
NI3133   NI        0.580318    0.689793    0.656322     0.004307
NI3134   NI        0.615887    0.665143    0.631624     0.004307
NI3135   NI        0.610651    0.693390    0.601655     0.004307
NI3136   NI        0.646069    0.642220    0.606430     0.004307
NI3137   NI        0.644434    0.677340    0.646514     0.004307
NI3138   NI        0.694187    0.640548    0.638437     0.004307
NI3139   NI        0.680186    0.679807    0.609469     0.004307
NI3140   NI        0.713375    0.645719    0.612880     0.004307
NI3141   NI        0.712690    0.678924    0.649865     0.004307
NI3142   NI        0.748963    0.645247    0.647750     0.004307
NI3143   NI        0.770157    0.645117    0.602805     0.004307
NI3144   NI        0.159869    0.715395    0.604540     0.004307
NI3145   NI        0.185766    0.712466    0.668020     0.004307
NI3146   NI        0.192989    0.783255    0.562456     0.004307
PD3147   PD        0.229659    0.714192    0.601161     0.005394
NI3148   NI        0.223025    0.768345    0.659190     0.004307
PD3149   PD        0.265455    0.715664    0.637090     0.005394
PD3150   PD        0.263920    0.748229    0.600792     0.005394
PD3151   PD        0.297006    0.715920    0.597288     0.005394
NI3152   NI        0.299300    0.750500    0.633577     0.004307
NI3153   NI        0.335834    0.742162    0.645551     0.004307
NI3154   NI        0.315483    0.742119    0.623323     0.004307
NI3155   NI        0.357207    0.728846    0.600298     0.004307
NI3156   NI        0.359626    0.768163    0.660334     0.004307
NI3157   NI        0.396686    0.724543    0.631516     0.004307
NI3158   NI        0.400776    0.745672    0.597851     0.004307
NI3159   NI        0.455265    0.719879    0.592039     0.004307
NI3160   NI        0.433298    0.737748    0.637232     0.004307
NI3161   NI        0.470354    0.718983    0.638885     0.004307
NI3162   NI        0.470825    0.743031    0.595591     0.004307
NI3163   NI        0.496787    0.719179    0.592576     0.004307
NI3164   NI        0.502033    0.754673    0.639584     0.004307
NI3165   NI        0.521136    0.719112    0.626288     0.004307
NI3166   NI        0.539847    0.739965    0.601581     0.004307
NI3167   NI        0.584569    0.725552    0.590676     0.004307
NI3168   NI        0.572111    0.740386    0.639577     0.004307
NI3169   NI        0.608868    0.709544    0.649643     0.004307
NI3170   NI        0.610801    0.759736    0.615654     0.004307
NI3171   NI        0.652750    0.716507    0.627345     0.004307
NI3172   NI        0.639710    0.739842    0.638669     0.004307
NI3173   NI        0.676824    0.713121    0.648686     0.004307
NI3174   NI        0.678376    0.755975    0.573155     0.004307
NI3175   NI        0.711552    0.714086    0.614203     0.004307
NI3176   NI        0.264864    0.783081    0.635734     0.004307
NI3177   NI        0.297890    0.784136    0.595473     0.004307
NI3178   NI        0.315216    0.782532    0.650670     0.004307
NI3179   NI        0.328461    0.802147    0.606693     0.004307
NI3180   NI        0.355832    0.790933    0.575824     0.004307
NI3181   NI        0.369591    0.817802    0.626148     0.004307
NI3182   NI        0.403655    0.776951    0.635901     0.004307
NI3183   NI        0.410506    0.808966    0.600265     0.004307
NI3184   NI        0.434654    0.772479    0.600514     0.004307
NI3185   NI        0.435337    0.819179    0.627283     0.004307
NI3186   NI        0.466281    0.767468    0.636255     0.004307
NI3187   NI        0.446654    0.840305    0.596506     0.004307
NI3188   NI        0.494126    0.793113    0.605171     0.004307
NI3189   NI        0.518758    0.817074    0.639317     0.004307
NI3190   NI        0.531205    0.792200    0.638086     0.004307
NI3191   NI        0.555846    0.821246    0.608623     0.004307
NI3192   NI        0.587121    0.788378    0.595184     0.004307
NI3193   NI        0.603635    0.774259    0.641645     0.004307
NI3194   NI        0.264330    0.122009    0.682668     0.004307
NI3195   NI        0.300947    0.126681    0.711668     0.004307
NI3196   NI        0.324294    0.107247    0.690799     0.004307
NI3197   NI        0.365722    0.087585    0.670844     0.004307
NI3198   NI        0.368306    0.129724    0.711357     0.004307
NI3199   NI        0.393271    0.088746    0.714915     0.004307
NI3200   NI        0.420055    0.119232    0.686529     0.004307
NI3201   NI        0.429435    0.082242    0.679854     0.004307
NI3202   NI        0.432040    0.117394    0.715435     0.004307
NI3203   NI        0.472473    0.092799    0.714680     0.004307
NI3204   NI        0.470622    0.134859    0.688441     0.004307
NI3205   NI        0.503763    0.097154    0.675496     0.004307
NI3206   NI        0.498058    0.101276    0.709220     0.004307
NI3207   NI        0.540549    0.123073    0.694348     0.004307
NI3208   NI        0.569847    0.129478    0.710451     0.004307
NI3209   NI        0.614433    0.124365    0.686015     0.004307
NI3210   NI        0.184825    0.184077    0.688824     0.004307
NI3211   NI        0.227458    0.157156    0.681870     0.004307
NI3212   NI        0.249494    0.188724    0.733669     0.004307
NI3213   NI        0.264237    0.156143    0.718045     0.004307
NI3214   NI        0.264648    0.190628    0.683258     0.004307
NI3215   NI        0.306427    0.145527    0.667290     0.004307
NI3216   NI        0.295585    0.191203    0.717672     0.004307
NI3217   NI        0.331094    0.162632    0.708000     0.004307
PD3218   PD        0.331694    0.190799    0.679341     0.005394
PD3219   PD        0.368408    0.158395    0.676591     0.005394
NI3220   NI        0.384135    0.187975    0.716388     0.004307
NI3221   NI        0.391152    0.132846    0.736976     0.004307
PD3222   PD        0.403447    0.195155    0.672972     0.005394
NI3223   NI        0.431403    0.162814    0.691903     0.004307
NI3224   NI        0.431737    0.183841    0.716414     0.004307
NI3225   NI        0.473174    0.142933    0.708339     0.004307
NI3226   NI        0.481949    0.176073    0.675528     0.004307
NI3227   NI        0.502880    0.168148    0.674489     0.004307
NI3228   NI        0.508735    0.198555    0.720378     0.004307
NI3229   NI        0.538642    0.146771    0.701030     0.004307
NI3230   NI        0.539620    0.198927    0.685357     0.004307
NI3231   NI        0.572574    0.166545    0.673365     0.004307
NI3232   NI        0.577935    0.200149    0.699646     0.004307
NI3233   NI        0.606477    0.163201    0.713775     0.004307
NI3234   NI        0.616189    0.180669    0.677878     0.004307
NI3235   NI        0.639332    0.159249    0.678171     0.004307
NI3236   NI        0.643766    0.193883    0.719857     0.004307
NI3237   NI        0.679447    0.192866    0.681472     0.004307
NI3238   NI        0.123007    0.270624    0.677246     0.004307
NI3239   NI        0.146646    0.212879    0.691964     0.004307
NI3240   NI        0.159633    0.262352    0.709982     0.004307
NI3241   NI        0.190204    0.227493    0.712535     0.004307
NI3242   NI        0.202710    0.255628    0.686027     0.004307
NI3243   NI        0.221623    0.210915    0.681357     0.004307
NI3244   NI        0.226799    0.260637    0.715922     0.004307
NI3245   NI        0.249643    0.235755    0.736853     0.004307
NI3246   NI        0.249790    0.246295    0.689923     0.004307
NI3247   NI        0.291993    0.228290    0.676264     0.004307
NI3248   NI        0.293608    0.245651    0.744589     0.004307
NI3249   NI        0.324842    0.222382    0.716173     0.004307
PD3250   PD        0.329655    0.258769    0.681276     0.005394
NI3251   NI        0.367247    0.225627    0.678515     0.004307
NI3252   NI        0.363040    0.254614    0.718933     0.004307
NI3253   NI        0.399027    0.205044    0.746676     0.004307
PD3254   PD        0.402677    0.263462    0.670741     0.005394
NI3255   NI        0.435383    0.208591    0.673544     0.004307
PD3256   PD        0.441945    0.267594    0.719492     0.005394
PD3257   PD        0.476678    0.232796    0.705468     0.005394
PD3258   PD        0.476984    0.266056    0.681854     0.005394
PD3259   PD        0.502700    0.221906    0.665639     0.005394
PD3260   PD        0.509887    0.266657    0.720484     0.005394
NI3261   NI        0.546032    0.229158    0.722358     0.004307
PD3262   PD        0.534878    0.251983    0.678100     0.005394
NI3263   NI        0.584404    0.214659    0.675478     0.004307
PD3264   PD        0.580968    0.266279    0.720366     0.005394
PD3265   PD        0.611199    0.227966    0.716150     0.005394
PD3266   PD        0.614756    0.264388    0.684822     0.005394
PD3267   PD        0.646382    0.228346    0.683364     0.005394
NI3268   NI        0.627476    0.270554    0.734952     0.004307
NI3269   NI        0.681326    0.226177    0.718624     0.004307
PD3270   PD        0.681994    0.259558    0.680635     0.005394
NI3271   NI        0.714480    0.225426    0.682153     0.004307
NI3272   NI        0.728689    0.232996    0.726263     0.004307
NI3273   NI        0.748588    0.260991    0.682012     0.004307
NI3274   NI        0.132636    0.286193    0.725874     0.004307
NI3275   NI        0.116228    0.321935    0.698810     0.004307
NI3276   NI        0.160038    0.303455    0.688070     0.004307
NI3277   NI        0.144641    0.343496    0.716700     0.004307
NI3278   NI        0.195205    0.295385    0.712053     0.004307
PD3279   PD        0.197721    0.329774    0.673817     0.005394
NI3280   NI        0.229216    0.293626    0.678189     0.004307
PD3281   PD        0.230072    0.330493    0.721471     0.005394
PD3282   PD        0.262329    0.293993    0.719121     0.005394
PD3283   PD        0.265081    0.328047    0.683105     0.005394
PD3284   PD        0.296488    0.293534    0.683521     0.005394
PD3285   PD        0.296651    0.325633    0.721821     0.005394
PD3286   PD        0.339476    0.299290    0.708849     0.005394
PD3287   PD        0.324294    0.334060    0.677361     0.005394
PD3288   PD        0.364659    0.289595    0.682316     0.005394
PD3289   PD        0.354859    0.343485    0.715761     0.005394
PD3290   PD        0.396588    0.282029    0.717675     0.005394
PD3291   PD        0.411069    0.333201    0.674420     0.005394
PD3292   PD        0.434907    0.290738    0.691744     0.005394
PD3293   PD        0.443864    0.335934    0.717923     0.005394
PD3294   PD        0.476817    0.301202    0.716086     0.005394
PD3295   PD        0.481009    0.343581    0.689876     0.005394
PD3296   PD        0.513414    0.297823    0.682385     0.005394
PD3297   PD        0.513005    0.332369    0.720424     0.005394
PD3298   PD        0.546226    0.298220    0.718064     0.005394
NI3299   NI        0.541022    0.312355    0.703399     0.004307
PD3300   PD        0.582219    0.299250    0.682833     0.005394
PD3301   PD        0.581633    0.332741    0.719946     0.005394
PD3302   PD        0.615643    0.299518    0.720839     0.005394
PD3303   PD        0.617193    0.332179    0.683451     0.005394
PD3304   PD        0.647886    0.296982    0.681228     0.005394
NI3305   NI        0.652492    0.333373    0.716823     0.004307
NI3306   NI        0.682216    0.294342    0.718605     0.004307
NI3307   NI        0.684104    0.334313    0.679855     0.004307
NI3308   NI        0.726931    0.271105    0.693429     0.004307
NI3309   NI        0.704104    0.325092    0.702104     0.004307
NI3310   NI        0.722081    0.294914    0.722375     0.004307
NI3311   NI        0.737960    0.338106    0.670848     0.004307
NI3312   NI        0.073478    0.359661    0.695316     0.004307
NI3313   NI        0.095359    0.398632    0.708744     0.004307
NI3314   NI        0.131222    0.366224    0.710506     0.004307
NI3315   NI        0.129923    0.400708    0.673038     0.004307
NI3316   NI        0.137340    0.353955    0.667950     0.004307
NI3317   NI        0.169692    0.406335    0.700990     0.004307
NI3318   NI        0.189367    0.355859    0.709495     0.004307
NI3319   NI        0.200316    0.406401    0.682803     0.004307
PD3320   PD        0.221153    0.369539    0.691534     0.005394
NI3321   NI        0.231479    0.409756    0.718816     0.004307
PD3322   PD        0.263296    0.362330    0.718637     0.005394
PD3323   PD        0.253950    0.404932    0.696023     0.005394
PD3324   PD        0.302422    0.362167    0.687744     0.005394
NI3325   NI        0.297219    0.416793    0.714431     0.004307
PD3326   PD        0.316105    0.370443    0.712019     0.005394
PD3327   PD        0.340754    0.422716    0.697230     0.005394
PD3328   PD        0.369709    0.357085    0.689089     0.005394
PD3329   PD        0.366201    0.391629    0.727233     0.005394
PD3330   PD        0.400769    0.355271    0.724113     0.005394
PD3331   PD        0.394092    0.396134    0.691773     0.005394
PD3332   PD        0.430012    0.368474    0.673857     0.005394
PD3333   PD        0.440309    0.403939    0.735066     0.005394
PD3334   PD        0.468359    0.372245    0.724168     0.005394
PD3335   PD        0.477763    0.406297    0.688927     0.005394
PD3336   PD        0.498638    0.363543    0.684937     0.005394
PD3337   PD        0.509150    0.397978    0.726022     0.005394
PD3338   PD        0.541932    0.367111    0.708998     0.005394
PD3339   PD        0.517163    0.415025    0.666390     0.005394
PD3340   PD        0.583307    0.367209    0.682528     0.005394
PD3341   PD        0.583538    0.400398    0.719163     0.005394
PD3342   PD        0.617484    0.366134    0.719567     0.005394
PD3343   PD        0.617640    0.400144    0.682460     0.005394
NI3344   NI        0.639483    0.356937    0.686684     0.004307
NI3345   NI        0.652554    0.414532    0.728877     0.004307
PD3346   PD        0.686420    0.368302    0.718025     0.005394
NI3347   NI        0.671338    0.412464    0.679183     0.004307
NI3348   NI        0.721615    0.369342    0.681900     0.004307
PD3349   PD        0.720525    0.405273    0.716789     0.005394
NI3350   NI        0.756046    0.371513    0.716547     0.004307
NI3351   NI        0.777091    0.388399    0.691250     0.004307
NI3352   NI        0.810824    0.360084    0.670452     0.004307
NI3353   NI        0.768155    0.395599    0.709265     0.004307
NI3354   NI        0.093125    0.422874    0.695698     0.004307
NI3355   NI        0.081626    0.490436    0.743084     0.004307
NI3356   NI        0.135206    0.434768    0.708201     0.004307
NI3357   NI        0.118619    0.478356    0.672788     0.004307
NI3358   NI        0.156321    0.413728    0.692909     0.004307
NI3359   NI        0.168410    0.469034    0.709259     0.004307
NI3360   NI        0.194339    0.440289    0.715434     0.004307
NI3361   NI        0.183998    0.451072    0.687966     0.004307
NI3362   NI        0.233134    0.430542    0.689635     0.004307
NI3363   NI        0.225109    0.477577    0.700157     0.004307
NI3364   NI        0.236070    0.433168    0.742212     0.004307
PD3365   PD        0.268401    0.463298    0.687599     0.005394
PD3366   PD        0.303490    0.428031    0.685324     0.005394
NI3367   NI        0.291149    0.485636    0.725250     0.004307
NI3368   NI        0.308959    0.441276    0.723805     0.004307
PD3369   PD        0.327568    0.468697    0.676784     0.005394
PD3370   PD        0.340839    0.463954    0.670561     0.005394
PD3371   PD        0.361904    0.472237    0.714419     0.005394
PD3372   PD        0.388120    0.434007    0.719743     0.005394
PD3373   PD        0.408604    0.471234    0.693401     0.005394
PD3374   PD        0.420147    0.434165    0.672991     0.005394
PD3375   PD        0.430700    0.469337    0.708536     0.005394
PD3376   PD        0.477842    0.433373    0.727990     0.005394
PD3377   PD        0.475522    0.467161    0.690311     0.005394
PD3378   PD        0.514173    0.435668    0.680933     0.005394
PD3379   PD        0.511959    0.467711    0.721535     0.005394
PD3380   PD        0.550224    0.436282    0.719597     0.005394
PD3381   PD        0.530337    0.477331    0.675454     0.005394
PD3382   PD        0.583605    0.434807    0.682614     0.005394
PD3383   PD        0.581471    0.468877    0.718673     0.005394
PD3384   PD        0.617022    0.435062    0.719322     0.005394
PD3385   PD        0.616569    0.469915    0.682525     0.005394
PD3386   PD        0.651114    0.437308    0.681637     0.005394
PD3387   PD        0.650297    0.470951    0.718949     0.005394
NI3388   NI        0.693119    0.428856    0.729117     0.004307
PD3389   PD        0.684897    0.471843    0.681761     0.005394
PD3390   PD        0.719766    0.439153    0.682386     0.005394
PD3391   PD        0.718721    0.473022    0.720503     0.005394
NI3392   NI        0.753889    0.438660    0.718751     0.004307
PD3393   PD        0.753057    0.473824    0.683958     0.005394
NI3394   NI        0.787973    0.439782    0.681952     0.004307
NI3395   NI        0.771825    0.451206    0.749312     0.004307
NI3396   NI        0.105839    0.506194    0.665607     0.004307
NI3397   NI        0.138782    0.503772    0.708273     0.004307
NI3398   NI        0.104550    0.523738    0.688861     0.004307
NI3399   NI        0.157421    0.502857    0.672988     0.004307
NI3400   NI        0.163291    0.551952    0.722056     0.004307
NI3401   NI        0.186877    0.510870    0.714103     0.004307
NI3402   NI        0.185236    0.530644    0.667265     0.004307
NI3403   NI        0.197460    0.499635    0.669256     0.004307
NI3404   NI        0.240998    0.539170    0.705064     0.004307
NI3405   NI        0.271152    0.498431    0.721814     0.004307
PD3406   PD        0.267191    0.548092    0.681080     0.005394
PD3407   PD        0.305019    0.491185    0.674966     0.005394
PD3408   PD        0.302866    0.548898    0.714826     0.005394
PD3409   PD        0.330532    0.503792    0.713260     0.005394
PD3410   PD        0.329650    0.538014    0.675214     0.005394
PD3411   PD        0.387227    0.490737    0.653162     0.005394
PD3412   PD        0.365129    0.538704    0.711352     0.005394
PD3413   PD        0.409126    0.502807    0.729598     0.005394
PD3414   PD        0.417808    0.517382    0.682768     0.005394
PD3415   PD        0.431030    0.504720    0.673251     0.005394
PD3416   PD        0.433234    0.539922    0.709732     0.005394
PD3417   PD        0.478347    0.500987    0.724373     0.005394
PD3418   PD        0.476056    0.535531    0.687720     0.005394
PD3419   PD        0.511585    0.502711    0.690460     0.005394
PD3420   PD        0.508687    0.533916    0.709321     0.005394
PD3421   PD        0.545110    0.500671    0.718873     0.005394
PD3422   PD        0.547061    0.537153    0.686212     0.005394
PD3423   PD        0.581018    0.504951    0.681346     0.005394
PD3424   PD        0.581818    0.537729    0.718722     0.005394
PD3425   PD        0.614809    0.503416    0.719637     0.005394
PD3426   PD        0.614192    0.538437    0.682566     0.005394
NI3427   NI        0.676752    0.508785    0.701172     0.004307
NI3428   NI        0.656956    0.530102    0.726554     0.004307
PD3429   PD        0.682996    0.506572    0.721149     0.005394
PD3430   PD        0.682141    0.540292    0.683145     0.005394
PD3431   PD        0.717541    0.506757    0.683357     0.005394
PD3432   PD        0.715447    0.541965    0.719373     0.005394
NI3433   NI        0.754699    0.505369    0.722191     0.004307
NI3434   NI        0.750949    0.541486    0.681394     0.004307
NI3435   NI        0.786838    0.506607    0.684567     0.004307
NI3436   NI        0.117456    0.560986    0.713866     0.004307
NI3437   NI        0.126746    0.606772    0.679172     0.004307
NI3438   NI        0.146803    0.581553    0.678510     0.004307
NI3439   NI        0.168766    0.602055    0.714344     0.004307
NI3440   NI        0.188850    0.570293    0.701745     0.004307
NI3441   NI        0.187698    0.624236    0.697411     0.004307
PD3442   PD        0.232611    0.577973    0.677278     0.005394
NI3443   NI        0.227026    0.598424    0.706078     0.004307
NI3444   NI        0.264510    0.569267    0.706822     0.004307
PD3445   PD        0.264441    0.612844    0.676458     0.005394
PD3446   PD        0.301365    0.580712    0.676761     0.005394
NI3447   NI        0.263717    0.605826    0.752766     0.004307
PD3448   PD        0.333007    0.585608    0.723189     0.005394
PD3449   PD        0.327247    0.606918    0.677084     0.005394
PD3450   PD        0.364066    0.573306    0.674967     0.005394
PD3451   PD        0.355414    0.596235    0.718137     0.005394
PD3452   PD        0.396720    0.574215    0.712962     0.005394
PD3453   PD        0.400370    0.620055    0.689227     0.005394
PD3454   PD        0.432054    0.561256    0.681360     0.005394
NI3455   NI        0.432712    0.623621    0.722084     0.004307
PD3456   PD        0.472526    0.567658    0.709609     0.005394
PD3457   PD        0.459242    0.601511    0.689826     0.005394
PD3458   PD        0.506134    0.566628    0.671942     0.005394
NI3459   NI        0.492849    0.628573    0.717404     0.004307
PD3460   PD        0.539737    0.568505    0.710640     0.005394
PD3461   PD        0.537811    0.600923    0.670783     0.005394
PD3462   PD        0.579747    0.570561    0.682926     0.005394
PD3463   PD        0.576707    0.604150    0.720432     0.005394
PD3464   PD        0.613429    0.572260    0.718188     0.005394
NI3465   NI        0.613691    0.606025    0.679617     0.004307
PD3466   PD        0.647191    0.572822    0.681316     0.005394
NI3467   NI        0.664480    0.609019    0.746541     0.004307
PD3468   PD        0.682926    0.573918    0.719594     0.005394
PD3469   PD        0.680507    0.608600    0.683489     0.005394
PD3470   PD        0.716034    0.575781    0.681970     0.005394
NI3471   NI        0.713346    0.608803    0.720220     0.004307
NI3472   NI        0.750726    0.575764    0.720181     0.004307
NI3473   NI        0.748099    0.610888    0.683492     0.004307
NI3474   NI        0.145715    0.648801    0.693338     0.004307
NI3475   NI        0.196826    0.639550    0.711859     0.004307
NI3476   NI        0.188766    0.671298    0.696066     0.004307
NI3477   NI        0.225467    0.644708    0.675183     0.004307
NI3478   NI        0.231024    0.675219    0.718777     0.004307
NI3479   NI        0.267231    0.641333    0.721633     0.004307
PD3480   PD        0.267591    0.684321    0.674462     0.005394
NI3481   NI        0.292437    0.641589    0.678716     0.004307
NI3482   NI        0.302894    0.672052    0.726046     0.004307
NI3483   NI        0.343426    0.633644    0.714042     0.004307
PD3484   PD        0.326090    0.677375    0.677483     0.005394
PD3485   PD        0.359936    0.641848    0.675874     0.005394
NI3486   NI        0.361382    0.689085    0.733357     0.004307
NI3487   NI        0.387787    0.649768    0.727378     0.004307
NI3488   NI        0.404457    0.680380    0.668964     0.004307
PD3489   PD        0.435663    0.652443    0.682557     0.005394
NI3490   NI        0.428141    0.675334    0.713105     0.004307
NI3491   NI        0.471229    0.653912    0.717040     0.004307
PD3492   PD        0.474173    0.679343    0.667130     0.005394
PD3493   PD        0.508258    0.635432    0.676728     0.005394
NI3494   NI        0.509626    0.671526    0.707822     0.004307
PD3495   PD        0.539438    0.636979    0.719446     0.005394
NI3496   NI        0.560192    0.676067    0.700942     0.004307
PD3497   PD        0.575668    0.639977    0.685966     0.005394
NI3498   NI        0.573160    0.672905    0.715512     0.004307
NI3499   NI        0.606805    0.665711    0.711189     0.004307
NI3500   NI        0.610132    0.647010    0.692679     0.004307
NI3501   NI        0.635558    0.648198    0.675954     0.004307
NI3502   NI        0.641474    0.675862    0.716549     0.004307
NI3503   NI        0.706109    0.646538    0.750140     0.004307
NI3504   NI        0.676867    0.698362    0.678806     0.004307
NI3505   NI        0.712750    0.643681    0.682464     0.004307
NI3506   NI        0.192824    0.719411    0.681814     0.004307
NI3507   NI        0.267766    0.717499    0.710891     0.004307
NI3508   NI        0.279776    0.764062    0.678783     0.004307
NI3509   NI        0.302011    0.718786    0.671378     0.004307
NI3510   NI        0.295011    0.756061    0.733833     0.004307
NI3511   NI        0.332444    0.711618    0.710726     0.004307
NI3512   NI        0.324869    0.758350    0.693791     0.004307
NI3513   NI        0.368960    0.715577    0.670197     0.004307
NI3514   NI        0.357858    0.771907    0.755260     0.004307
NI3515   NI        0.384635    0.719970    0.726795     0.004307
NI3516   NI        0.398992    0.741916    0.674043     0.004307
NI3517   NI        0.444252    0.708145    0.679397     0.004307
NI3518   NI        0.419073    0.764428    0.714909     0.004307
NI3519   NI        0.468494    0.702257    0.713154     0.004307
NI3520   NI        0.475109    0.745666    0.682044     0.004307
NI3521   NI        0.504081    0.719347    0.673559     0.004307
NI3522   NI        0.500337    0.739765    0.710762     0.004307
NI3523   NI        0.533485    0.703333    0.709218     0.004307
NI3524   NI        0.533827    0.737878    0.673297     0.004307
NI3525   NI        0.574886    0.717003    0.656865     0.004307
NI3526   NI        0.586730    0.728824    0.746154     0.004307
NI3527   NI        0.628521    0.720420    0.721792     0.004307
NI3528   NI        0.604932    0.743263    0.685727     0.004307
NI3529   NI        0.641486    0.734091    0.675888     0.004307
NI3530   NI        0.367999    0.780820    0.669570     0.004307
NI3531   NI        0.386443    0.803500    0.733582     0.004307
NI3532   NI        0.435208    0.772076    0.670090     0.004307
NI3533   NI        0.452318    0.798660    0.716054     0.004307
NI3534   NI        0.498804    0.792855    0.655381     0.004307
NI3535   NI        0.400876    0.116195    0.756283     0.004307
NI3536   NI        0.470852    0.129469    0.749086     0.004307
NI3537   NI        0.247417    0.195913    0.765200     0.004307
NI3538   NI        0.290765    0.165184    0.740261     0.004307
NI3539   NI        0.293579    0.213083    0.814504     0.004307
NI3540   NI        0.334557    0.198153    0.744538     0.004307
NI3541   NI        0.372505    0.162088    0.752756     0.004307
NI3542   NI        0.373982    0.210770    0.803517     0.004307
NI3543   NI        0.407536    0.158652    0.784177     0.004307
NI3544   NI        0.407389    0.184753    0.760180     0.004307
NI3545   NI        0.436350    0.152079    0.741974     0.004307
NI3546   NI        0.434209    0.204263    0.791513     0.004307
NI3547   NI        0.476934    0.146979    0.798613     0.004307
NI3548   NI        0.473318    0.198478    0.744496     0.004307
NI3549   NI        0.501796    0.165853    0.761856     0.004307
NI3550   NI        0.490632    0.197638    0.793969     0.004307
NI3551   NI        0.538109    0.188477    0.737717     0.004307
NI3552   NI        0.576521    0.160279    0.755228     0.004307
NI3553   NI        0.574837    0.199575    0.781043     0.004307
NI3554   NI        0.597220    0.185157    0.775035     0.004307
NI3555   NI        0.193240    0.260455    0.747303     0.004307
NI3556   NI        0.223527    0.211174    0.757744     0.004307
NI3557   NI        0.223934    0.257939    0.789250     0.004307
NI3558   NI        0.257902    0.224555    0.790966     0.004307
NI3559   NI        0.260675    0.237120    0.741234     0.004307
NI3560   NI        0.305797    0.231861    0.753705     0.004307
NI3561   NI        0.292505    0.258761    0.793406     0.004307
NI3562   NI        0.332138    0.233082    0.797134     0.004307
NI3563   NI        0.339028    0.266409    0.746236     0.004307
NI3564   NI        0.356161    0.221917    0.755088     0.004307
NI3565   NI        0.381056    0.258939    0.811332     0.004307
NI3566   NI        0.410524    0.228898    0.784392     0.004307
NI3567   NI        0.387914    0.257639    0.762371     0.004307
NI3568   NI        0.441861    0.236252    0.758826     0.004307
NI3569   NI        0.427070    0.244518    0.820439     0.004307
NI3570   NI        0.482769    0.195231    0.799161     0.004307
PD3571   PD        0.475858    0.267698    0.754521     0.005394
NI3572   NI        0.506793    0.231695    0.752310     0.004307
NI3573   NI        0.491042    0.269033    0.797011     0.004307
NI3574   NI        0.542786    0.230188    0.790799     0.004307
PD3575   PD        0.545552    0.264717    0.756713     0.005394
NI3576   NI        0.567320    0.225491    0.736661     0.004307
NI3577   NI        0.578121    0.263519    0.792441     0.004307
NI3578   NI        0.611251    0.228501    0.792987     0.004307
NI3579   NI        0.613296    0.263433    0.755947     0.004307
NI3580   NI        0.646081    0.229464    0.755962     0.004307
NI3581   NI        0.646161    0.227441    0.799104     0.004307
NI3582   NI        0.680787    0.260600    0.756142     0.004307
NI3583   NI        0.159673    0.296313    0.746887     0.004307
NI3584   NI        0.182013    0.311800    0.788597     0.004307
NI3585   NI        0.208743    0.334104    0.771634     0.004307
NI3586   NI        0.226335    0.293263    0.754783     0.004307
NI3587   NI        0.225785    0.328558    0.790173     0.004307
NI3588   NI        0.257895    0.292295    0.793686     0.004307
PD3589   PD        0.261100    0.327776    0.756537     0.005394
NI3590   NI        0.294286    0.292317    0.756868     0.004307
NI3591   NI        0.307143    0.330289    0.785952     0.004307
NI3592   NI        0.351158    0.314844    0.795974     0.004307
NI3593   NI        0.308009    0.322105    0.771241     0.004307
NI3594   NI        0.364410    0.286780    0.756092     0.004307
NI3595   NI        0.372152    0.332223    0.785448     0.004307
NI3596   NI        0.380570    0.296629    0.804987     0.004307
NI3597   NI        0.404963    0.332735    0.765307     0.004307
NI3598   NI        0.431248    0.283343    0.753750     0.004307
NI3599   NI        0.439381    0.329443    0.800659     0.004307
NI3600   NI        0.454023    0.282467    0.808228     0.004307
PD3601   PD        0.478179    0.336098    0.754649     0.005394
PD3602   PD        0.511752    0.298850    0.752963     0.005394
NI3603   NI        0.499101    0.321257    0.788779     0.004307
PD3604   PD        0.545826    0.299440    0.791095     0.005394
PD3605   PD        0.545688    0.332776    0.753522     0.005394
PD3606   PD        0.579537    0.297266    0.756736     0.005394
PD3607   PD        0.577853    0.334962    0.791093     0.005394
NI3608   NI        0.611102    0.260666    0.806223     0.004307
PD3609   PD        0.582450    0.370034    0.737829     0.005394
NI3610   NI        0.667860    0.305983    0.759291     0.004307
NI3611   NI        0.650441    0.331866    0.791793     0.004307
NI3612   NI        0.662901    0.273323    0.757777     0.004307
NI3613   NI        0.687861    0.334236    0.749558     0.004307
NI3614   NI        0.722197    0.283152    0.747071     0.004307
NI3615   NI        0.122138    0.400695    0.725550     0.004307
NI3616   NI        0.168883    0.373611    0.760798     0.004307
NI3617   NI        0.171787    0.416327    0.796719     0.004307
NI3618   NI        0.191964    0.362386    0.790281     0.004307
NI3619   NI        0.206570    0.402691    0.762566     0.004307
NI3620   NI        0.232024    0.359333    0.766167     0.004307
NI3621   NI        0.222164    0.367343    0.793378     0.004307
NI3622   NI        0.269930    0.372176    0.777449     0.004307
NI3623   NI        0.235194    0.405774    0.769570     0.004307
NI3624   NI        0.323506    0.368048    0.762296     0.004307
NI3625   NI        0.309973    0.402984    0.795457     0.004307
NI3626   NI        0.329465    0.358951    0.796832     0.004307
NI3627   NI        0.318150    0.417476    0.768061     0.004307
NI3628   NI        0.367542    0.358445    0.744939     0.004307
PD3629   PD        0.356144    0.397293    0.784100     0.005394
NI3630   NI        0.412692    0.371655    0.791982     0.004307
PD3631   PD        0.407150    0.402144    0.752480     0.005394
PD3632   PD        0.437527    0.364023    0.761617     0.005394
PD3633   PD        0.439985    0.407442    0.782070     0.005394
PD3634   PD        0.471470    0.363911    0.797605     0.005394
PD3635   PD        0.480192    0.399489    0.762674     0.005394
NI3636   NI        0.509369    0.367143    0.753479     0.004307
NI3637   NI        0.503399    0.403003    0.796685     0.004307
NI3638   NI        0.545404    0.368714    0.789688     0.004307
PD3639   PD        0.549448    0.400076    0.754126     0.005394
PD3640   PD        0.583643    0.368424    0.757002     0.005394
PD3641   PD        0.582571    0.400000    0.791400     0.005394
NI3642   NI        0.617623    0.365695    0.790061     0.004307
PD3643   PD        0.617402    0.400564    0.755307     0.005394
NI3644   NI        0.652095    0.389639    0.768983     0.004307
NI3645   NI        0.644217    0.376904    0.816425     0.004307
NI3646   NI        0.686221    0.365845    0.788376     0.004307
NI3647   NI        0.686426    0.402888    0.754729     0.004307
NI3648   NI        0.721246    0.368295    0.752140     0.004307
NI3649   NI        0.688263    0.396153    0.799942     0.004307
NI3650   NI        0.753552    0.405116    0.756329     0.004307
NI3651   NI        0.127132    0.466992    0.744938     0.004307
NI3652   NI        0.144083    0.445271    0.766951     0.004307
NI3653   NI        0.166743    0.476341    0.795354     0.004307
NI3654   NI        0.188722    0.443319    0.788778     0.004307
NI3655   NI        0.186726    0.474278    0.749886     0.004307
NI3656   NI        0.230672    0.453486    0.764375     0.004307
NI3657   NI        0.213765    0.486340    0.788120     0.004307
NI3658   NI        0.243074    0.449386    0.788923     0.004307
NI3659   NI        0.246313    0.478180    0.757698     0.004307
NI3660   NI        0.302879    0.431633    0.760975     0.004307
NI3661   NI        0.307613    0.465112    0.797933     0.004307
NI3662   NI        0.316797    0.450863    0.801829     0.004307
PD3663   PD        0.338663    0.460397    0.758744     0.005394
PD3664   PD        0.378363    0.436773    0.770541     0.005394
NI3665   NI        0.365953    0.479543    0.792115     0.004307
PD3666   PD        0.414407    0.454191    0.799777     0.005394
PD3667   PD        0.385711    0.462973    0.759771     0.005394
PD3668   PD        0.444607    0.434054    0.761345     0.005394
NI3669   NI        0.421363    0.455287    0.782381     0.004307
PD3670   PD        0.474943    0.440561    0.780974     0.005394
PD3671   PD        0.481556    0.466091    0.761975     0.005394
PD3672   PD        0.515009    0.434007    0.757806     0.005394
PD3673   PD        0.512339    0.470278    0.789295     0.005394
NI3674   NI        0.550656    0.438667    0.789645     0.004307
PD3675   PD        0.549433    0.471494    0.755527     0.005394
PD3676   PD        0.582093    0.435239    0.755678     0.005394
NI3677   NI        0.578514    0.472857    0.804822     0.004307
PD3678   PD        0.614961    0.436258    0.793678     0.005394
NI3679   NI        0.597626    0.476619    0.758401     0.004307
PD3680   PD        0.650935    0.436732    0.754763     0.005394
PD3681   PD        0.650217    0.470140    0.793498     0.005394
NI3682   NI        0.675318    0.431747    0.779664     0.004307
PD3683   PD        0.685175    0.470365    0.757283     0.005394
PD3684   PD        0.720296    0.437686    0.756120     0.005394
NI3685   NI        0.719489    0.472948    0.793544     0.004307
NI3686   NI        0.743023    0.468183    0.748071     0.004307
NI3687   NI        0.164521    0.501590    0.748420     0.004307
NI3688   NI        0.182087    0.489676    0.796773     0.004307
NI3689   NI        0.197487    0.526255    0.768278     0.004307
NI3690   NI        0.213666    0.510769    0.759751     0.004307
NI3691   NI        0.216613    0.522773    0.814367     0.004307
NI3692   NI        0.287322    0.498949    0.769507     0.004307
NI3693   NI        0.267464    0.536251    0.745264     0.004307
NI3694   NI        0.277188    0.514468    0.761780     0.004307
NI3695   NI        0.289146    0.542563    0.787274     0.004307
NI3696   NI        0.330253    0.513608    0.786421     0.004307
PD3697   PD        0.336657    0.546085    0.750141     0.005394
NI3698   NI        0.364752    0.506305    0.750925     0.004307
NI3699   NI        0.376317    0.539690    0.802654     0.004307
PD3700   PD        0.408792    0.498330    0.779336     0.005394
PD3701   PD        0.401437    0.538244    0.747072     0.005394
NI3702   NI        0.430946    0.517260    0.773990     0.004307
NI3703   NI        0.430636    0.545844    0.817194     0.004307
NI3704   NI        0.464690    0.490333    0.791949     0.004307
PD3705   PD        0.468386    0.536205    0.746455     0.005394
PD3706   PD        0.514638    0.504032    0.756225     0.005394
PD3707   PD        0.509269    0.538295    0.785945     0.005394
PD3708   PD        0.546327    0.504947    0.793486     0.005394
PD3709   PD        0.544889    0.536197    0.752777     0.005394
PD3710   PD        0.582312    0.504011    0.757281     0.005394
NI3711   NI        0.578103    0.535146    0.809479     0.004307
PD3712   PD        0.614360    0.503068    0.794186     0.005394
NI3713   NI        0.600989    0.544968    0.768662     0.004307
PD3714   PD        0.649837    0.504513    0.756719     0.005394
NI3715   NI        0.648784    0.537436    0.793868     0.004307
NI3716   NI        0.681578    0.505143    0.792629     0.004307
PD3717   PD        0.681679    0.540824    0.757461     0.005394
NI3718   NI        0.716687    0.508251    0.756245     0.004307
NI3719   NI        0.154529    0.585644    0.749717     0.004307
NI3720   NI        0.199478    0.570418    0.781236     0.004307
NI3721   NI        0.196019    0.611660    0.753565     0.004307
NI3722   NI        0.236282    0.573165    0.748805     0.004307
NI3723   NI        0.228501    0.602847    0.787448     0.004307
NI3724   NI        0.270865    0.571683    0.784609     0.004307
NI3725   NI        0.255651    0.601788    0.746357     0.004307
NI3726   NI        0.298276    0.572394    0.748099     0.004307
NI3727   NI        0.273198    0.608343    0.817709     0.004307
NI3728   NI        0.328189    0.575194    0.786982     0.004307
NI3729   NI        0.339449    0.618526    0.761344     0.004307
PD3730   PD        0.364303    0.562781    0.754532     0.005394
NI3731   NI        0.377493    0.620200    0.783722     0.004307
PD3732   PD        0.403672    0.569388    0.784481     0.005394
NI3733   NI        0.392197    0.602351    0.778116     0.004307
PD3734   PD        0.434178    0.571033    0.747667     0.005394
NI3735   NI        0.438941    0.601386    0.787581     0.004307
PD3736   PD        0.471164    0.572012    0.780190     0.005394
NI3737   NI        0.478989    0.594198    0.766095     0.004307
PD3738   PD        0.505958    0.566913    0.745587     0.005394
NI3739   NI        0.514755    0.631254    0.788494     0.004307
NI3740   NI        0.519079    0.581618    0.783901     0.004307
NI3741   NI        0.545567    0.606380    0.761522     0.004307
PD3742   PD        0.575207    0.572606    0.747602     0.005394
NI3743   NI        0.545874    0.612159    0.805913     0.004307
NI3744   NI        0.627559    0.580184    0.787744     0.004307
PD3745   PD        0.613889    0.608697    0.754212     0.005394
NI3746   NI        0.646860    0.573656    0.754706     0.004307
NI3747   NI        0.645131    0.608565    0.791654     0.004307
NI3748   NI        0.677725    0.576975    0.794201     0.004307
NI3749   NI        0.678653    0.607530    0.755132     0.004307
NI3750   NI        0.715277    0.575333    0.756070     0.004307
NI3751   NI        0.228395    0.647301    0.750758     0.004307
NI3752   NI        0.253006    0.645067    0.810434     0.004307
NI3753   NI        0.266956    0.674180    0.760049     0.004307
NI3754   NI        0.315605    0.655145    0.770073     0.004307
NI3755   NI        0.273339    0.703706    0.799972     0.004307
NI3756   NI        0.333898    0.630390    0.788634     0.004307
NI3757   NI        0.323620    0.687412    0.770384     0.004307
NI3758   NI        0.361991    0.659025    0.755265     0.004307
NI3759   NI        0.368338    0.693785    0.786400     0.004307
NI3760   NI        0.411227    0.666565    0.782971     0.004307
NI3761   NI        0.403662    0.686344    0.756966     0.004307
NI3762   NI        0.432872    0.640511    0.746156     0.004307
NI3763   NI        0.419382    0.703068    0.798707     0.004307
NI3764   NI        0.470698    0.640490    0.777627     0.004307
NI3765   NI        0.490329    0.683088    0.771389     0.004307
NI3766   NI        0.478000    0.653862    0.758578     0.004307
NI3767   NI        0.496287    0.675786    0.790942     0.004307
NI3768   NI        0.554062    0.639300    0.796823     0.004307
NI3769   NI        0.545517    0.705355    0.739291     0.004307
NI3770   NI        0.576724    0.635399    0.738757     0.004307
NI3771   NI        0.573670    0.674441    0.766468     0.004307
NI3772   NI        0.630949    0.651388    0.812064     0.004307
NI3773   NI        0.631766    0.671925    0.765482     0.004307
NI3774   NI        0.628784    0.662791    0.779548     0.004307
NI3775   NI        0.299894    0.730233    0.775797     0.004307
NI3776   NI        0.369380    0.710008    0.747031     0.004307
NI3777   NI        0.407911    0.708089    0.779514     0.004307
NI3778   NI        0.400336    0.757750    0.742982     0.004307
NI3779   NI        0.436560    0.707342    0.748484     0.004307
NI3780   NI        0.450668    0.690904    0.797365     0.004307
NI3781   NI        0.470860    0.731516    0.775718     0.004307
NI3782   NI        0.502397    0.705845    0.749253     0.004307
NI3783   NI        0.564993    0.745842    0.755226     0.004307
NI3784   NI        0.380015    0.187062    0.861742     0.004307
NI3785   NI        0.469155    0.207830    0.837704     0.004307
NI3786   NI        0.257066    0.254917    0.828288     0.004307
NI3787   NI        0.327629    0.255838    0.828437     0.004307
NI3788   NI        0.361020    0.218005    0.828199     0.004307
NI3789   NI        0.338641    0.294903    0.860900     0.004307
NI3790   NI        0.410130    0.263942    0.817685     0.004307
NI3791   NI        0.437094    0.214974    0.860577     0.004307
NI3792   NI        0.444964    0.262415    0.855385     0.004307
NI3793   NI        0.460518    0.253772    0.847866     0.004307
NI3794   NI        0.507692    0.230505    0.819788     0.004307
NI3795   NI        0.523077    0.283938    0.891525     0.004307
NI3796   NI        0.543833    0.264679    0.827547     0.004307
NI3797   NI        0.638714    0.260419    0.849196     0.004307
NI3798   NI        0.245901    0.329460    0.850273     0.004307
NI3799   NI        0.292645    0.290938    0.830326     0.004307
NI3800   NI        0.308739    0.330437    0.860802     0.004307
NI3801   NI        0.311918    0.281723    0.857638     0.004307
NI3802   NI        0.347626    0.330463    0.831234     0.004307
NI3803   NI        0.367410    0.278458    0.830834     0.004307
NI3804   NI        0.367665    0.335764    0.873373     0.004307
NI3805   NI        0.387739    0.305533    0.867459     0.004307
NI3806   NI        0.396734    0.339732    0.831429     0.004307
NI3807   NI        0.419150    0.289238    0.840462     0.004307
NI3808   NI        0.429829    0.330027    0.866965     0.004307
NI3809   NI        0.481352    0.293463    0.866880     0.004307
NI3810   NI        0.480548    0.328497    0.831090     0.004307
NI3811   NI        0.511219    0.297115    0.831065     0.004307
NI3812   NI        0.513506    0.333113    0.867047     0.004307
NI3813   NI        0.507609    0.294682    0.878287     0.004307
NI3814   NI        0.536913    0.333638    0.818540     0.004307
NI3815   NI        0.579035    0.299087    0.828751     0.004307
NI3816   NI        0.543080    0.326438    0.880065     0.004307
NI3817   NI        0.611741    0.339734    0.816883     0.004307
NI3818   NI        0.202315    0.398846    0.820412     0.004307
NI3819   NI        0.207288    0.352061    0.835255     0.004307
NI3820   NI        0.272971    0.363956    0.861661     0.004307
NI3821   NI        0.269001    0.400079    0.818302     0.004307
NI3822   NI        0.291970    0.361774    0.830423     0.004307
NI3823   NI        0.270376    0.401463    0.891087     0.004307
NI3824   NI        0.301509    0.398519    0.852716     0.004307
NI3825   NI        0.332647    0.391146    0.831260     0.004307
NI3826   NI        0.372963    0.371005    0.817163     0.004307
NI3827   NI        0.348112    0.397145    0.841642     0.004307
NI3828   NI        0.408790    0.363934    0.875385     0.004307
NI3829   NI        0.399965    0.384254    0.838488     0.004307
NI3830   NI        0.440039    0.363077    0.836390     0.004307
NI3831   NI        0.438250    0.401105    0.869718     0.004307
NI3832   NI        0.479832    0.369248    0.865733     0.004307
NI3833   NI        0.470264    0.397131    0.834375     0.004307
NI3834   NI        0.506337    0.369955    0.819981     0.004307
NI3835   NI        0.509351    0.401964    0.864422     0.004307
NI3836   NI        0.544121    0.369146    0.863841     0.004307
NI3837   NI        0.538035    0.402120    0.824304     0.004307
NI3838   NI        0.573543    0.369364    0.826397     0.004307
NI3839   NI        0.548013    0.398611    0.903492     0.004307
NI3840   NI        0.610505    0.390842    0.861720     0.004307
NI3841   NI        0.617699    0.400237    0.828929     0.004307
NI3842   NI        0.650057    0.366496    0.829499     0.004307
NI3843   NI        0.648315    0.424225    0.804202     0.004307
NI3844   NI        0.203988    0.459438    0.821846     0.004307
NI3845   NI        0.223036    0.429210    0.854497     0.004307
NI3846   NI        0.260837    0.411482    0.866842     0.004307
NI3847   NI        0.244731    0.484911    0.829320     0.004307
NI3848   NI        0.282288    0.444340    0.837279     0.004307
NI3849   NI        0.299503    0.465750    0.852231     0.004307
NI3850   NI        0.334103    0.442912    0.874566     0.004307
NI3851   NI        0.339177    0.470500    0.832676     0.004307
NI3852   NI        0.365645    0.426265    0.838630     0.004307
NI3853   NI        0.372782    0.463866    0.856711     0.004307
NI3854   NI        0.402541    0.431312    0.872774     0.004307
NI3855   NI        0.406065    0.474900    0.845670     0.004307
NI3856   NI        0.433352    0.425448    0.835341     0.004307
NI3857   NI        0.426283    0.463836    0.848258     0.004307
NI3858   NI        0.477945    0.436611    0.864313     0.004307
NI3859   NI        0.483875    0.491905    0.822284     0.004307
NI3860   NI        0.469702    0.436967    0.860785     0.004307
NI3861   NI        0.506173    0.463697    0.877524     0.004307
NI3862   NI        0.538287    0.427327    0.875277     0.004307
NI3863   NI        0.544483    0.469730    0.828987     0.004307
NI3864   NI        0.592842    0.413757    0.830812     0.004307
NI3865   NI        0.572539    0.464755    0.859543     0.004307
NI3866   NI        0.604620    0.437688    0.858145     0.004307
NI3867   NI        0.613647    0.480051    0.837325     0.004307
NI3868   NI        0.664985    0.451637    0.843165     0.004307
NI3869   NI        0.703933    0.467720    0.868013     0.004307
NI3870   NI        0.237066    0.494618    0.833611     0.004307
NI3871   NI        0.256670    0.480795    0.878898     0.004307
NI3872   NI        0.252213    0.540214    0.842495     0.004307
NI3873   NI        0.282320    0.504798    0.842903     0.004307
NI3874   NI        0.301534    0.532652    0.873440     0.004307
NI3875   NI        0.337493    0.499476    0.871850     0.004307
NI3876   NI        0.340820    0.538245    0.842646     0.004307
NI3877   NI        0.371465    0.505283    0.836617     0.004307
NI3878   NI        0.378563    0.546084    0.866368     0.004307
NI3879   NI        0.406430    0.513683    0.860920     0.004307
NI3880   NI        0.423901    0.551286    0.837228     0.004307
NI3881   NI        0.443228    0.509177    0.845380     0.004307
NI3882   NI        0.421589    0.550180    0.890647     0.004307
NI3883   NI        0.471481    0.495015    0.851974     0.004307
NI3884   NI        0.472550    0.537680    0.818866     0.004307
NI3885   NI        0.536622    0.490665    0.819743     0.004307
NI3886   NI        0.519260    0.529163    0.874006     0.004307
NI3887   NI        0.531880    0.489805    0.842708     0.004307
NI3888   NI        0.546557    0.537086    0.831521     0.004307
NI3889   NI        0.578556    0.502483    0.828706     0.004307
NI3890   NI        0.571765    0.539809    0.860949     0.004307
NI3891   NI        0.603023    0.471118    0.896291     0.004307
NI3892   NI        0.606396    0.563988    0.831760     0.004307
NI3893   NI        0.649095    0.504202    0.829905     0.004307
NI3894   NI        0.275558    0.602236    0.826453     0.004307
NI3895   NI        0.309772    0.568994    0.822722     0.004307
NI3896   NI        0.362444    0.585640    0.890097     0.004307
NI3897   NI        0.355550    0.619410    0.832859     0.004307
NI3898   NI        0.355241    0.573188    0.825710     0.004307
NI3899   NI        0.342458    0.626451    0.877072     0.004307
NI3900   NI        0.407705    0.581173    0.874749     0.004307
NI3901   NI        0.400791    0.594684    0.827364     0.004307
NI3902   NI        0.421239    0.568551    0.828661     0.004307
NI3903   NI        0.449689    0.625734    0.903725     0.004307
NI3904   NI        0.453792    0.579616    0.891220     0.004307
NI3905   NI        0.461293    0.615715    0.855399     0.004307
NI3906   NI        0.502501    0.574905    0.818134     0.004307
NI3907   NI        0.504228    0.608967    0.855407     0.004307
NI3908   NI        0.535267    0.577849    0.856711     0.004307
NI3909   NI        0.561344    0.615802    0.828108     0.004307
NI3910   NI        0.563358    0.573466    0.826943     0.004307
NI3911   NI        0.608865    0.610608    0.824925     0.004307
NI3912   NI        0.363637    0.662180    0.843152     0.004307
NI3913   NI        0.395646    0.694295    0.826921     0.004307
NI3914   NI        0.437158    0.640063    0.818659     0.004307
NI3915   NI        0.488271    0.673808    0.858470     0.004307
NI3916   NI        0.526420    0.644811    0.840455     0.004307
NI3917   NI        0.407464    0.400018    0.910490     0.004307
NI3918   NI        0.421212    0.355313    0.916943     0.004307
NI3919   NI        0.443103    0.397506    0.919491     0.004307
NI3920   NI        0.366484    0.427583    0.906439     0.004307
NI3921   NI        0.394198    0.456424    0.885314     0.004307
NI3922   NI        0.434274    0.432828    0.886659     0.004307
NI3923   NI        0.472312    0.472674    0.896784     0.004307
NI3924   NI        0.511786    0.451632    0.913486     0.004307
NI3925   NI        0.436008    0.505225    0.894273     0.004307
