data_00001
_audit_creation_method   'DISCUS'

_data_chemical_name_common 'Pd.cell: Pearson 85'

_cell_length_a             57.1046
_cell_length_b             57.1046
_cell_length_c             57.1046
_cell_angle_alpha     90.0000
_cell_angle_beta      90.0000
_cell_angle_gamma     90.0000

_symmetry_space_group_name_H-M   'P1              '

loop_
_atom_site_label
_atom_site_symbol
_atom_site_fract_x
_atom_site_fract_y
_atom_site_fract_z
_atom_site_u_iso_or_equiv
NI1   NI        0.357902    0.276804    0.067117     0.004307
NI2   NI        0.438375    0.282126    0.063475     0.004307
NI3   NI        0.508438    0.290599    0.059833     0.004307
NI4   NI        0.298477    0.349625    0.072692     0.004307
NI5   NI        0.335138    0.317234    0.068196     0.004307
NI6   NI        0.401323    0.353891    0.034691     0.004307
NI7   NI        0.402038    0.291414    0.032235     0.004307
NI8   NI        0.434327    0.352494    0.069999     0.004307
NI9   NI        0.469692    0.317212    0.064522     0.004307
NI10   NI        0.506413    0.350175    0.064429     0.004307
NI11   NI        0.540714    0.317417    0.038657     0.004307
NI12   NI        0.571460    0.348443    0.061636     0.004307
NI13   NI        0.264972    0.385498    0.071738     0.004307
NI14   NI        0.300758    0.413075    0.066589     0.004307
NI15   NI        0.334669    0.382467    0.068901     0.004307
NI16   NI        0.369272    0.419580    0.056318     0.004307
NI17   NI        0.402854    0.384811    0.070076     0.004307
NI18   NI        0.407471    0.425032    0.026195     0.004307
NI19   NI        0.438258    0.382444    0.033237     0.004307
NI20   NI        0.438130    0.419668    0.064385     0.004307
NI21   NI        0.503471    0.373544    0.044884     0.004307
NI22   NI        0.470419    0.418403    0.030666     0.004307
NI23   NI        0.504999    0.417281    0.066953     0.004307
NI24   NI        0.539777    0.383970    0.064789     0.004307
NI25   NI        0.583639    0.399304    0.050905     0.004307
NI26   NI        0.616413    0.364003    0.058811     0.004307
NI27   NI        0.267448    0.446336    0.054760     0.004307
NI28   NI        0.299122    0.481351    0.051477     0.004307
NI29   NI        0.336051    0.451448    0.066028     0.004307
NI30   NI        0.343871    0.437103    0.021437     0.004307
NI31   NI        0.369096    0.485069    0.060238     0.004307
NI32   NI        0.402972    0.450301    0.068570     0.004307
NI33   NI        0.382869    0.488565    0.014633     0.004307
NI34   NI        0.439295    0.453582    0.027420     0.004307
NI35   NI        0.438185    0.486383    0.060743     0.004307
NI36   NI        0.471500    0.451715    0.063773     0.004307
NI37   NI        0.471535    0.475501    0.029393     0.004307
NI38   NI        0.510616    0.491002    0.000714     0.004307
NI39   NI        0.505803    0.486970    0.062558     0.004307
NI40   NI        0.538976    0.451461    0.067196     0.004307
NI41   NI        0.592090    0.500417    0.072953     0.004307
NI42   NI        0.610709    0.456261    0.062555     0.004307
NI43   NI        0.248367    0.521765    0.093010     0.004307
NI44   NI        0.287907    0.536287    0.067112     0.004307
NI45   NI        0.334167    0.521658    0.064971     0.004307
NI46   NI        0.367666    0.556789    0.061214     0.004307
NI47   NI        0.402903    0.521369    0.059634     0.004307
NI48   NI        0.455545    0.520818    0.030529     0.004307
NI49   NI        0.434429    0.520361    0.036774     0.004307
NI50   NI        0.467856    0.553207    0.037073     0.004307
NI51   NI        0.505567    0.554586    0.067468     0.004307
NI52   NI        0.541050    0.521090    0.066004     0.004307
NI53   NI        0.573341    0.554525    0.063923     0.004307
NI54   NI        0.607814    0.520948    0.063363     0.004307
NI55   NI        0.334523    0.588052    0.067103     0.004307
NI56   NI        0.357000    0.640202    0.047268     0.004307
NI57   NI        0.400504    0.590438    0.068228     0.004307
NI58   NI        0.433324    0.650853    0.032468     0.004307
NI59   NI        0.472666    0.585519    0.066678     0.004307
NI60   NI        0.505525    0.622589    0.063283     0.004307
NI61   NI        0.545522    0.594121    0.071254     0.004307
NI62   NI        0.307936    0.199295    0.135136     0.004307
NI63   NI        0.368484    0.212868    0.136189     0.004307
NI64   NI        0.404364    0.180052    0.135475     0.004307
NI65   NI        0.404995    0.200696    0.111649     0.004307
NI66   NI        0.431520    0.212130    0.110750     0.004307
NI67   NI        0.466249    0.151280    0.120896     0.004307
NI68   NI        0.449595    0.177483    0.085608     0.004307
NI69   NI        0.506110    0.209148    0.136407     0.004307
NI70   NI        0.579774    0.209515    0.126795     0.004307
NI71   NI        0.233260    0.279957    0.135124     0.004307
NI72   NI        0.261677    0.240254    0.147412     0.004307
NI73   NI        0.266318    0.279618    0.100322     0.004307
NI74   NI        0.301606    0.280082    0.133981     0.004307
NI75   NI        0.332616    0.225603    0.105718     0.004307
NI76   NI        0.323434    0.272789    0.099411     0.004307
NI77   NI        0.360257    0.216563    0.068226     0.004307
NI78   NI        0.379088    0.261318    0.133560     0.004307
NI79   NI        0.409935    0.243180    0.127261     0.004307
NI80   NI        0.404918    0.280796    0.097155     0.004307
NI81   NI        0.415511    0.244109    0.083778     0.004307
NI82   NI        0.428493    0.281472    0.111001     0.004307
NI83   NI        0.474573    0.232436    0.107896     0.004307
NI84   NI        0.466880    0.280574    0.101626     0.004307
NI85   NI        0.504148    0.210118    0.075540     0.004307
NI86   NI        0.510894    0.277950    0.129056     0.004307
NI87   NI        0.539838    0.243432    0.134108     0.004307
NI88   NI        0.542302    0.279835    0.095311     0.004307
PD89   PD        0.576950    0.279270    0.128273     0.005394
NI90   NI        0.609699    0.244523    0.128101     0.004307
NI91   NI        0.609745    0.279272    0.092350     0.004307
NI92   NI        0.646142    0.278413    0.127358     0.004307
NI93   NI        0.198922    0.314983    0.135209     0.004307
NI94   NI        0.233370    0.350864    0.135274     0.004307
NI95   NI        0.251688    0.307840    0.126434     0.004307
NI96   NI        0.264894    0.348174    0.101444     0.004307
NI97   NI        0.293000    0.329574    0.065996     0.004307
NI98   NI        0.297902    0.359358    0.143919     0.004307
NI99   NI        0.335985    0.303196    0.134426     0.004307
NI100   NI        0.330598    0.353969    0.082917     0.004307
NI101   NI        0.368007    0.312726    0.100158     0.004307
NI102   NI        0.369037    0.347355    0.138242     0.004307
NI103   NI        0.395504    0.290129    0.138886     0.004307
NI104   NI        0.402019    0.350989    0.105403     0.004307
NI105   NI        0.423397    0.314454    0.079216     0.004307
NI106   NI        0.438428    0.353314    0.134370     0.004307
NI107   NI        0.474650    0.310286    0.132541     0.004307
NI108   NI        0.471559    0.350306    0.100363     0.004307
NI109   NI        0.503970    0.316364    0.100671     0.004307
PD110   PD        0.506345    0.344578    0.132729     0.005394
PD111   PD        0.542869    0.312419    0.129301     0.005394
NI112   NI        0.539357    0.348368    0.097906     0.004307
NI113   NI        0.579662    0.314304    0.094826     0.004307
PD114   PD        0.575307    0.347471    0.128938     0.005394
NI115   NI        0.631756    0.315233    0.099283     0.004307
NI116   NI        0.643551    0.348899    0.082705     0.004307
NI117   NI        0.643936    0.348935    0.128493     0.004307
NI118   NI        0.680187    0.311772    0.126533     0.004307
NI119   NI        0.158193    0.432263    0.117493     0.004307
NI120   NI        0.200802    0.383842    0.138853     0.004307
NI121   NI        0.205920    0.419168    0.072563     0.004307
NI122   NI        0.232789    0.384504    0.100750     0.004307
NI123   NI        0.222010    0.429237    0.116212     0.004307
NI124   NI        0.264195    0.382554    0.120543     0.004307
NI125   NI        0.266003    0.420621    0.099733     0.004307
NI126   NI        0.301645    0.385876    0.103940     0.004307
NI127   NI        0.297252    0.417890    0.121754     0.004307
NI128   NI        0.331230    0.383764    0.120503     0.004307
NI129   NI        0.330744    0.422421    0.101861     0.004307
NI130   NI        0.367668    0.384118    0.102575     0.004307
NI131   NI        0.370803    0.418319    0.140105     0.004307
PD132   PD        0.403438    0.380832    0.136070     0.005394
NI133   NI        0.400377    0.422070    0.106452     0.004307
NI134   NI        0.435673    0.381059    0.102026     0.004307
PD135   PD        0.437651    0.403672    0.128708     0.005394
NI136   NI        0.487332    0.393482    0.124573     0.004307
PD137   PD        0.471780    0.419543    0.100653     0.005394
NI138   NI        0.515008    0.400314    0.091275     0.004307
PD139   PD        0.505648    0.416440    0.133948     0.005394
PD140   PD        0.540753    0.382489    0.131970     0.005394
NI141   NI        0.564883    0.402134    0.095370     0.004307
NI142   NI        0.588266    0.367028    0.084566     0.004307
NI143   NI        0.568901    0.403815    0.107475     0.004307
NI144   NI        0.617580    0.367556    0.121696     0.004307
PD145   PD        0.607468    0.419655    0.096288     0.005394
NI146   NI        0.650459    0.351145    0.090382     0.004307
NI147   NI        0.642826    0.415147    0.128563     0.004307
NI148   NI        0.680349    0.380783    0.125656     0.004307
NI149   NI        0.678080    0.416945    0.092795     0.004307
NI150   NI        0.712610    0.416506    0.126852     0.004307
NI151   NI        0.169287    0.488424    0.141555     0.004307
NI152   NI        0.194014    0.462644    0.130673     0.004307
NI153   NI        0.190545    0.461188    0.081420     0.004307
NI154   NI        0.219337    0.466004    0.071567     0.004307
NI155   NI        0.258933    0.479859    0.130719     0.004307
NI156   NI        0.262391    0.452609    0.121807     0.004307
NI157   NI        0.262897    0.483674    0.084548     0.004307
NI158   NI        0.298092    0.453538    0.090068     0.004307
NI159   NI        0.273762    0.484672    0.131263     0.004307
NI160   NI        0.344691    0.451880    0.129696     0.004307
NI161   NI        0.356347    0.495452    0.093901     0.004307
NI162   NI        0.368609    0.452307    0.092098     0.004307
NI163   NI        0.369671    0.487357    0.133040     0.004307
NI164   NI        0.407312    0.459908    0.131623     0.004307
NI165   NI        0.402953    0.486035    0.103689     0.004307
NI166   NI        0.435417    0.451987    0.098421     0.004307
NI167   NI        0.445791    0.481638    0.108745     0.004307
PD168   PD        0.470246    0.448380    0.137850     0.005394
NI169   NI        0.479221    0.471665    0.097522     0.004307
NI170   NI        0.503374    0.429326    0.106215     0.004307
PD171   PD        0.506823    0.487891    0.131171     0.005394
PD172   PD        0.536808    0.451591    0.134592     0.005394
NI173   NI        0.538889    0.477107    0.081724     0.004307
NI174   NI        0.572612    0.451011    0.105543     0.004307
PD175   PD        0.574799    0.484923    0.134960     0.005394
NI176   NI        0.610971    0.450731    0.134166     0.004307
NI177   NI        0.608778    0.487037    0.098479     0.004307
NI178   NI        0.668724    0.467867    0.082562     0.004307
NI179   NI        0.650026    0.512033    0.111593     0.004307
NI180   NI        0.677479    0.448980    0.124493     0.004307
NI181   NI        0.671379    0.476378    0.087096     0.004307
NI182   NI        0.712095    0.488981    0.131176     0.004307
NI183   NI        0.181145    0.509794    0.138663     0.004307
NI184   NI        0.241047    0.546194    0.082682     0.004307
NI185   NI        0.229486    0.556103    0.130463     0.004307
NI186   NI        0.261180    0.518792    0.117417     0.004307
NI187   NI        0.267274    0.558536    0.102578     0.004307
NI188   NI        0.294892    0.513489    0.102985     0.004307
NI189   NI        0.304008    0.551050    0.136102     0.004307
NI190   NI        0.340782    0.520990    0.132266     0.004307
NI191   NI        0.327210    0.548496    0.094248     0.004307
NI192   NI        0.367659    0.522434    0.093167     0.004307
NI193   NI        0.363839    0.558382    0.121563     0.004307
NI194   NI        0.399385    0.527323    0.121841     0.004307
NI195   NI        0.404505    0.553023    0.099473     0.004307
NI196   NI        0.434060    0.522752    0.089619     0.004307
NI197   NI        0.432316    0.555312    0.139308     0.004307
NI198   NI        0.469031    0.526622    0.128195     0.004307
NI199   NI        0.478283    0.539041    0.082840     0.004307
NI200   NI        0.530534    0.552618    0.116307     0.004307
NI201   NI        0.509656    0.581274    0.148360     0.004307
PD202   PD        0.539692    0.520439    0.130493     0.005394
NI203   NI        0.527831    0.567315    0.070015     0.004307
NI204   NI        0.572232    0.518808    0.097217     0.004307
NI205   NI        0.584362    0.569399    0.125862     0.004307
NI206   NI        0.605948    0.520040    0.135664     0.004307
NI207   NI        0.644804    0.555397    0.091847     0.004307
NI208   NI        0.663944    0.516853    0.111736     0.004307
NI209   NI        0.668886    0.557506    0.124310     0.004307
NI210   NI        0.711849    0.521388    0.104623     0.004307
NI211   NI        0.180902    0.591500    0.121118     0.004307
NI212   NI        0.231548    0.629459    0.132715     0.004307
NI213   NI        0.252400    0.596347    0.131628     0.004307
NI214   NI        0.258304    0.623961    0.096511     0.004307
NI215   NI        0.300899    0.587588    0.102302     0.004307
NI216   NI        0.301224    0.620810    0.134071     0.004307
NI217   NI        0.325268    0.585787    0.113812     0.004307
NI218   NI        0.333963    0.622888    0.097487     0.004307
NI219   NI        0.364180    0.579433    0.099586     0.004307
NI220   NI        0.362819    0.620451    0.135023     0.004307
NI221   NI        0.392824    0.593242    0.115556     0.004307
NI222   NI        0.404929    0.622625    0.099473     0.004307
NI223   NI        0.435799    0.589456    0.098781     0.004307
NI224   NI        0.437143    0.624141    0.134694     0.004307
NI225   NI        0.470359    0.593467    0.129958     0.004307
NI226   NI        0.472742    0.621714    0.097631     0.004307
PD227   PD        0.506867    0.589351    0.099525     0.005394
PD228   PD        0.509462    0.625648    0.129836     0.005394
NI229   NI        0.544802    0.594315    0.128165     0.004307
NI230   NI        0.535225    0.623258    0.108119     0.004307
NI231   NI        0.561979    0.599773    0.075456     0.004307
NI232   NI        0.574406    0.623652    0.134088     0.004307
NI233   NI        0.602677    0.587571    0.134270     0.004307
NI234   NI        0.611826    0.628753    0.071263     0.004307
NI235   NI        0.640978    0.623291    0.129848     0.004307
NI236   NI        0.681033    0.610935    0.114146     0.004307
NI237   NI        0.267433    0.655739    0.132116     0.004307
NI238   NI        0.287465    0.699384    0.134433     0.004307
NI239   NI        0.314192    0.666109    0.123554     0.004307
NI240   NI        0.370284    0.654478    0.099050     0.004307
NI241   NI        0.369208    0.689982    0.134948     0.004307
NI242   NI        0.402289    0.656638    0.133318     0.004307
NI243   NI        0.402668    0.690340    0.099265     0.004307
NI244   NI        0.436745    0.690612    0.064063     0.004307
NI245   NI        0.399998    0.715805    0.138474     0.004307
NI246   NI        0.473189    0.655352    0.133584     0.004307
NI247   NI        0.470571    0.692889    0.095332     0.004307
NI248   NI        0.506241    0.661590    0.096508     0.004307
NI249   NI        0.497476    0.671358    0.129489     0.004307
NI250   NI        0.542497    0.661716    0.127986     0.004307
NI251   NI        0.554262    0.728018    0.121957     0.004307
NI252   NI        0.608938    0.658903    0.128847     0.004307
NI253   NI        0.401884    0.723434    0.131595     0.004307
NI254   NI        0.470729    0.723768    0.130348     0.004307
NI255   NI        0.291439    0.135601    0.188344     0.004307
NI256   NI        0.371298    0.144934    0.204119     0.004307
NI257   NI        0.377094    0.105919    0.170070     0.004307
NI258   NI        0.404278    0.143209    0.168329     0.004307
NI259   NI        0.440067    0.146536    0.204949     0.004307
NI260   NI        0.469850    0.099701    0.205464     0.004307
NI261   NI        0.470251    0.143461    0.168334     0.004307
NI262   NI        0.496141    0.110760    0.185744     0.004307
NI263   NI        0.575789    0.130050    0.174500     0.004307
NI264   NI        0.235267    0.209910    0.201627     0.004307
NI265   NI        0.250275    0.157263    0.176963     0.004307
NI266   NI        0.266358    0.211252    0.168450     0.004307
NI267   NI        0.320901    0.156935    0.153090     0.004307
NI268   NI        0.300968    0.210488    0.203201     0.004307
NI269   NI        0.323385    0.170774    0.198260     0.004307
NI270   NI        0.333801    0.207952    0.169523     0.004307
NI271   NI        0.337888    0.198210    0.167656     0.004307
NI272   NI        0.378275    0.202592    0.190688     0.004307
NI273   NI        0.405969    0.165874    0.178209     0.004307
NI274   NI        0.415357    0.209151    0.158188     0.004307
NI275   NI        0.436839    0.182496    0.143544     0.004307
NI276   NI        0.424757    0.194744    0.174655     0.004307
NI277   NI        0.487922    0.144284    0.199232     0.004307
NI278   NI        0.462943    0.222963    0.163504     0.004307
NI279   NI        0.509923    0.173002    0.170079     0.004307
NI280   NI        0.513383    0.209525    0.198599     0.004307
NI281   NI        0.547237    0.174792    0.195724     0.004307
NI282   NI        0.545499    0.208785    0.162640     0.004307
NI283   NI        0.572412    0.179207    0.182319     0.004307
NI284   NI        0.580873    0.181781    0.176118     0.004307
NI285   NI        0.620043    0.183482    0.203353     0.004307
NI286   NI        0.613109    0.210585    0.160419     0.004307
NI287   NI        0.627425    0.184241    0.209276     0.004307
NI288   NI        0.143540    0.292595    0.192320     0.004307
NI289   NI        0.174827    0.256609    0.187468     0.004307
NI290   NI        0.193514    0.251777    0.147751     0.004307
NI291   NI        0.227779    0.253351    0.178813     0.004307
NI292   NI        0.251725    0.287651    0.202508     0.004307
NI293   NI        0.267050    0.249662    0.204391     0.004307
NI294   NI        0.261234    0.276775    0.156077     0.004307
NI295   NI        0.300160    0.250877    0.171749     0.004307
NI296   NI        0.299710    0.271332    0.177218     0.004307
NI297   NI        0.326655    0.244294    0.205878     0.004307
NI298   NI        0.344220    0.267675    0.166019     0.004307
NI299   NI        0.387821    0.247608    0.177557     0.004307
NI300   NI        0.353101    0.277574    0.189190     0.004307
NI301   NI        0.403546    0.244958    0.188914     0.004307
NI302   NI        0.382625    0.273490    0.154985     0.004307
NI303   NI        0.428940    0.257273    0.152089     0.004307
NI304   NI        0.435141    0.283035    0.209778     0.004307
NI305   NI        0.477709    0.242102    0.194615     0.004307
NI306   NI        0.462081    0.285326    0.174407     0.004307
NI307   NI        0.510189    0.243515    0.162388     0.004307
NI308   NI        0.489154    0.281888    0.197551     0.004307
PD309   PD        0.543648    0.243404    0.194293     0.005394
PD310   PD        0.544547    0.277040    0.161936     0.005394
PD311   PD        0.579565    0.244286    0.161033     0.005394
PD312   PD        0.578455    0.278011    0.197595     0.005394
NI313   NI        0.610625    0.229218    0.206186     0.004307
PD314   PD        0.612624    0.278480    0.161418     0.005394
NI315   NI        0.661095    0.230007    0.144975     0.004307
PD316   PD        0.648878    0.277774    0.196359     0.005394
NI317   NI        0.685115    0.254355    0.179657     0.004307
NI318   NI        0.681610    0.281044    0.159239     0.004307
NI319   NI        0.715758    0.277611    0.194392     0.004307
NI320   NI        0.120531    0.305343    0.209317     0.004307
NI321   NI        0.172619    0.332712    0.169520     0.004307
NI322   NI        0.156202    0.339075    0.201400     0.004307
NI323   NI        0.193728    0.308694    0.203568     0.004307
NI324   NI        0.170746    0.342582    0.175099     0.004307
NI325   NI        0.245173    0.295583    0.159101     0.004307
NI326   NI        0.233183    0.330164    0.188040     0.004307
NI327   NI        0.232776    0.313517    0.170704     0.004307
NI328   NI        0.279402    0.344239    0.145152     0.004307
PD329   PD        0.299486    0.318738    0.172599     0.005394
PD330   PD        0.294262    0.357452    0.197686     0.005394
NI331   NI        0.337190    0.313364    0.216822     0.004307
NI332   NI        0.340092    0.347183    0.149461     0.004307
NI333   NI        0.362015    0.305762    0.140633     0.004307
PD334   PD        0.353938    0.345630    0.202721     0.005394
NI335   NI        0.414659    0.298617    0.192442     0.004307
NI336   NI        0.401265    0.334512    0.144471     0.004307
NI337   NI        0.441026    0.310389    0.156847     0.004307
PD338   PD        0.440844    0.343696    0.201153     0.005394
PD339   PD        0.475693    0.309823    0.199989     0.005394
PD340   PD        0.474846    0.343141    0.168001     0.005394
PD341   PD        0.510611    0.311739    0.166023     0.005394
PD342   PD        0.510881    0.345114    0.199250     0.005394
PD343   PD        0.546869    0.311643    0.196808     0.005394
PD344   PD        0.543146    0.345022    0.162077     0.005394
PD345   PD        0.578044    0.312691    0.162006     0.005394
PD346   PD        0.579516    0.347537    0.196043     0.005394
PD347   PD        0.613204    0.312374    0.197316     0.005394
PD348   PD        0.611829    0.347631    0.161394     0.005394
NI349   NI        0.667729    0.324397    0.159109     0.004307
PD350   PD        0.647980    0.346178    0.194992     0.005394
PD351   PD        0.682985    0.313741    0.193479     0.005394
PD352   PD        0.680133    0.347849    0.160283     0.005394
NI353   NI        0.739398    0.280945    0.155281     0.004307
NI354   NI        0.718003    0.345555    0.195350     0.004307
NI355   NI        0.749865    0.311153    0.193212     0.004307
NI356   NI        0.093355    0.410412    0.188355     0.004307
NI357   NI        0.139564    0.378934    0.200731     0.004307
NI358   NI        0.137807    0.415380    0.166909     0.004307
NI359   NI        0.168040    0.380908    0.176219     0.004307
NI360   NI        0.160778    0.423092    0.193850     0.004307
NI361   NI        0.170273    0.386385    0.183357     0.004307
NI362   NI        0.189709    0.423439    0.153611     0.004307
NI363   NI        0.232808    0.379568    0.156013     0.004307
NI364   NI        0.248105    0.395247    0.201454     0.004307
NI365   NI        0.286200    0.355173    0.201849     0.004307
NI366   NI        0.252595    0.403502    0.141352     0.004307
NI367   NI        0.288685    0.387652    0.165911     0.004307
PD368   PD        0.288759    0.423524    0.201769     0.005394
PD369   PD        0.329969    0.375067    0.204870     0.005394
NI370   NI        0.329930    0.415866    0.155709     0.004307
PD371   PD        0.371030    0.377410    0.171517     0.005394
PD372   PD        0.356558    0.412771    0.200390     0.005394
PD373   PD        0.390538    0.379303    0.205134     0.005394
PD374   PD        0.400926    0.419569    0.154712     0.005394
NI375   NI        0.447453    0.392562    0.146326     0.004307
PD376   PD        0.440185    0.411602    0.205684     0.005394
PD377   PD        0.457274    0.373050    0.199008     0.005394
PD378   PD        0.473978    0.413913    0.168260     0.005394
PD379   PD        0.507763    0.380961    0.165938     0.005394
PD380   PD        0.507173    0.412242    0.202572     0.005394
PD381   PD        0.543163    0.378314    0.198450     0.005394
NI382   NI        0.535771    0.442820    0.149031     0.004307
PD383   PD        0.577618    0.380652    0.163928     0.005394
PD384   PD        0.579161    0.413657    0.196546     0.005394
PD385   PD        0.614445    0.381077    0.196031     0.005394
PD386   PD        0.614597    0.415609    0.163644     0.005394
PD387   PD        0.644821    0.381825    0.160595     0.005394
PD388   PD        0.650489    0.414622    0.194868     0.005394
PD389   PD        0.682134    0.379743    0.194301     0.005394
NI390   NI        0.688689    0.431818    0.168307     0.004307
NI391   NI        0.736875    0.364767    0.155103     0.004307
NI392   NI        0.707005    0.418445    0.203441     0.004307
NI393   NI        0.749005    0.380591    0.194172     0.004307
NI394   NI        0.748629    0.413379    0.158325     0.004307
NI395   NI        0.779544    0.423650    0.194788     0.004307
NI396   NI        0.075919    0.489507    0.217343     0.004307
NI397   NI        0.125676    0.445212    0.203235     0.004307
NI398   NI        0.098681    0.485095    0.150534     0.004307
NI399   NI        0.157355    0.460893    0.156646     0.004307
NI400   NI        0.148372    0.492890    0.198164     0.004307
NI401   NI        0.192267    0.452393    0.186631     0.004307
NI402   NI        0.185068    0.493188    0.166993     0.004307
NI403   NI        0.229313    0.450972    0.154839     0.004307
NI404   NI        0.227017    0.492187    0.204845     0.004307
PD405   PD        0.259799    0.464624    0.198401     0.005394
NI406   NI        0.261576    0.485699    0.152483     0.004307
NI407   NI        0.297391    0.452660    0.156895     0.004307
PD408   PD        0.304823    0.479072    0.196989     0.005394
NI409   NI        0.342491    0.466199    0.195283     0.004307
NI410   NI        0.339808    0.483191    0.172023     0.004307
PD411   PD        0.340406    0.453716    0.177320     0.005394
PD412   PD        0.366284    0.485642    0.183632     0.005394
PD413   PD        0.402676    0.441105    0.211024     0.005394
PD414   PD        0.399881    0.478542    0.171425     0.005394
NI415   NI        0.440995    0.444118    0.155804     0.004307
PD416   PD        0.448745    0.490786    0.194851     0.005394
PD417   PD        0.474810    0.454874    0.181115     0.005394
PD418   PD        0.474285    0.504898    0.157542     0.005394
NI419   NI        0.503379    0.462720    0.137394     0.004307
PD420   PD        0.497503    0.494492    0.198451     0.005394
PD421   PD        0.546521    0.450236    0.194762     0.005394
PD422   PD        0.537495    0.482741    0.165543     0.005394
PD423   PD        0.572825    0.449286    0.164897     0.005394
PD424   PD        0.575850    0.500170    0.191267     0.005394
NI425   NI        0.593345    0.443205    0.186774     0.004307
NI426   NI        0.609728    0.485667    0.166148     0.004307
NI427   NI        0.648540    0.450687    0.162817     0.004307
PD428   PD        0.640090    0.487022    0.205878     0.005394
NI429   NI        0.671297    0.469741    0.186248     0.004307
NI430   NI        0.681434    0.485190    0.162698     0.004307
NI431   NI        0.712002    0.451695    0.161776     0.004307
NI432   NI        0.709840    0.488822    0.200410     0.004307
NI433   NI        0.755642    0.441343    0.194127     0.004307
NI434   NI        0.723630    0.493689    0.141240     0.004307
NI435   NI        0.813467    0.488662    0.231624     0.004307
NI436   NI        0.138805    0.513301    0.201167     0.004307
NI437   NI        0.162231    0.528380    0.168612     0.004307
NI438   NI        0.163719    0.553579    0.209476     0.004307
NI439   NI        0.196179    0.524270    0.201684     0.004307
NI440   NI        0.208296    0.543933    0.159506     0.004307
NI441   NI        0.217682    0.527313    0.163900     0.004307
NI442   NI        0.237683    0.548795    0.199123     0.004307
NI443   NI        0.251552    0.524957    0.175540     0.004307
NI444   NI        0.272630    0.559267    0.150522     0.004307
NI445   NI        0.295321    0.519311    0.152950     0.004307
NI446   NI        0.287197    0.555358    0.184517     0.004307
NI447   NI        0.323820    0.526362    0.208054     0.004307
NI448   NI        0.334202    0.565067    0.175528     0.004307
NI449   NI        0.376443    0.533918    0.159751     0.004307
PD450   PD        0.362738    0.564041    0.188397     0.005394
PD451   PD        0.401764    0.513124    0.201847     0.005394
PD452   PD        0.410565    0.548497    0.169519     0.005394
PD453   PD        0.452607    0.522321    0.163581     0.005394
PD454   PD        0.442318    0.554280    0.203869     0.005394
PD455   PD        0.469524    0.517578    0.186718     0.005394
NI456   NI        0.456968    0.549233    0.153929     0.004307
PD457   PD        0.513406    0.520398    0.170346     0.005394
PD458   PD        0.509026    0.560548    0.195291     0.005394
PD459   PD        0.543360    0.528667    0.194683     0.005394
PD460   PD        0.539685    0.559514    0.163424     0.005394
NI461   NI        0.591471    0.529899    0.151509     0.004307
PD462   PD        0.565813    0.546393    0.190465     0.005394
PD463   PD        0.612163    0.529647    0.194596     0.005394
PD464   PD        0.610328    0.556426    0.167072     0.005394
NI465   NI        0.631099    0.509664    0.153862     0.004307
PD466   PD        0.646841    0.560440    0.198146     0.005394
NI467   NI        0.679219    0.524625    0.197072     0.004307
NI468   NI        0.691118    0.548595    0.166090     0.004307
NI469   NI        0.711700    0.521992    0.166167     0.004307
NI470   NI        0.721587    0.514705    0.175621     0.004307
NI471   NI        0.764541    0.508925    0.197628     0.004307
NI472   NI        0.131199    0.588330    0.213189     0.004307
NI473   NI        0.164372    0.589305    0.176321     0.004307
NI474   NI        0.155459    0.634514    0.187818     0.004307
NI475   NI        0.181629    0.569480    0.192239     0.004307
NI476   NI        0.185912    0.650564    0.180326     0.004307
NI477   NI        0.214481    0.593085    0.156859     0.004307
NI478   NI        0.224552    0.630723    0.200732     0.004307
PD479   PD        0.254436    0.593691    0.199107     0.005394
NI480   NI        0.264905    0.624329    0.166577     0.004307
NI481   NI        0.290896    0.583574    0.163041     0.004307
NI482   NI        0.300594    0.622855    0.200868     0.004307
PD483   PD        0.352034    0.606381    0.192318     0.005394
NI484   NI        0.325141    0.624239    0.158592     0.004307
PD485   PD        0.376505    0.582040    0.159925     0.005394
PD486   PD        0.364631    0.611817    0.195035     0.005394
PD487   PD        0.404820    0.583553    0.197928     0.005394
NI488   NI        0.384741    0.630121    0.152611     0.004307
NI489   NI        0.419562    0.598802    0.160124     0.004307
PD490   PD        0.442383    0.611429    0.200394     0.005394
PD491   PD        0.474050    0.594317    0.198286     0.005394
NI492   NI        0.493709    0.629466    0.170613     0.004307
PD493   PD        0.506879    0.594644    0.163801     0.005394
PD494   PD        0.507552    0.628122    0.198573     0.005394
NI495   NI        0.546835    0.575743    0.200455     0.004307
NI496   NI        0.541804    0.614371    0.148745     0.004307
PD497   PD        0.576347    0.590924    0.167761     0.005394
PD498   PD        0.577561    0.630261    0.198435     0.005394
PD499   PD        0.612274    0.595287    0.197631     0.005394
PD500   PD        0.610149    0.625583    0.165699     0.005394
NI501   NI        0.643772    0.590936    0.165925     0.004307
PD502   PD        0.645501    0.628803    0.196439     0.005394
NI503   NI        0.678727    0.595830    0.196697     0.004307
NI504   NI        0.677174    0.627116    0.160936     0.004307
NI505   NI        0.705783    0.591825    0.172711     0.004307
NI506   NI        0.715203    0.626765    0.201990     0.004307
NI507   NI        0.780289    0.555998    0.196407     0.004307
NI508   NI        0.199985    0.663256    0.202384     0.004307
NI509   NI        0.233791    0.649044    0.171300     0.004307
NI510   NI        0.219340    0.684404    0.195163     0.004307
NI511   NI        0.261429    0.670830    0.216334     0.004307
NI512   NI        0.280135    0.696996    0.146559     0.004307
NI513   NI        0.300325    0.658516    0.167398     0.004307
NI514   NI        0.303150    0.688605    0.195651     0.004307
NI515   NI        0.339911    0.669036    0.170743     0.004307
NI516   NI        0.333406    0.693435    0.167853     0.004307
NI517   NI        0.378046    0.676824    0.162025     0.004307
NI518   NI        0.347981    0.694307    0.192443     0.004307
NI519   NI        0.418756    0.651505    0.189053     0.004307
NI520   NI        0.394853    0.676084    0.143179     0.004307
NI521   NI        0.435013    0.657270    0.169006     0.004307
PD522   PD        0.438618    0.695149    0.199187     0.005394
PD523   PD        0.472533    0.660499    0.198960     0.005394
PD524   PD        0.471803    0.693549    0.164895     0.005394
NI525   NI        0.537677    0.655947    0.134042     0.004307
PD526   PD        0.509129    0.696176    0.196883     0.005394
PD527   PD        0.540710    0.660329    0.199814     0.005394
PD528   PD        0.542923    0.695479    0.163740     0.005394
PD529   PD        0.575033    0.661367    0.164348     0.005394
PD530   PD        0.575776    0.696725    0.196820     0.005394
PD531   PD        0.610130    0.664411    0.196011     0.005394
NI532   NI        0.611596    0.695776    0.163236     0.004307
NI533   NI        0.621411    0.652804    0.151450     0.004307
NI534   NI        0.645299    0.696444    0.197578     0.004307
NI535   NI        0.673383    0.656962    0.215459     0.004307
NI536   NI        0.268826    0.727450    0.198949     0.004307
NI537   NI        0.270583    0.724526    0.175452     0.004307
NI538   NI        0.288773    0.768488    0.179184     0.004307
NI539   NI        0.316306    0.731706    0.187968     0.004307
NI540   NI        0.354031    0.729912    0.160566     0.004307
NI541   NI        0.357096    0.773110    0.178569     0.004307
NI542   NI        0.399541    0.754268    0.171131     0.004307
NI543   NI        0.402669    0.758728    0.163540     0.004307
NI544   NI        0.437662    0.726603    0.164713     0.004307
PD545   PD        0.437840    0.760332    0.197746     0.005394
PD546   PD        0.472563    0.728219    0.198053     0.005394
NI547   NI        0.478090    0.758180    0.141967     0.004307
NI548   NI        0.520950    0.721356    0.154913     0.004307
NI549   NI        0.479388    0.738724    0.210945     0.004307
PD550   PD        0.542063    0.731158    0.196143     0.005394
NI551   NI        0.576273    0.729934    0.162181     0.004307
NI552   NI        0.576647    0.763931    0.196220     0.004307
NI553   NI        0.611441    0.729803    0.197575     0.004307
NI554   NI        0.404450    0.795858    0.196299     0.004307
NI555   NI        0.469015    0.797691    0.197466     0.004307
NI556   NI        0.377985    0.065772    0.251673     0.004307
NI557   NI        0.425406    0.051180    0.259320     0.004307
NI558   NI        0.507696    0.073022    0.271849     0.004307
NI559   NI        0.239809    0.144896    0.254719     0.004307
NI560   NI        0.247026    0.087519    0.257600     0.004307
NI561   NI        0.266732    0.118125    0.227302     0.004307
PD562   PD        0.300432    0.138994    0.271458     0.005394
NI563   NI        0.332514    0.128567    0.260631     0.004307
NI564   NI        0.332752    0.152554    0.213456     0.004307
NI565   NI        0.372091    0.111527    0.236426     0.004307
NI566   NI        0.366901    0.140303    0.272851     0.004307
NI567   NI        0.402690    0.107039    0.272179     0.004307
NI568   NI        0.404817    0.142572    0.237625     0.004307
NI569   NI        0.436581    0.111482    0.236873     0.004307
PD570   PD        0.437306    0.141661    0.272228     0.005394
NI571   NI        0.467471    0.109314    0.271619     0.004307
NI572   NI        0.477966    0.129308    0.248881     0.004307
NI573   NI        0.514773    0.085712    0.215556     0.004307
NI574   NI        0.522588    0.119234    0.263233     0.004307
NI575   NI        0.544018    0.074871    0.240912     0.004307
NI576   NI        0.535801    0.143381    0.234408     0.004307
NI577   NI        0.567137    0.136635    0.254931     0.004307
NI578   NI        0.628489    0.116774    0.273436     0.004307
NI579   NI        0.595223    0.113365    0.223617     0.004307
NI580   NI        0.639855    0.144323    0.271468     0.004307
NI581   NI        0.162973    0.205448    0.268730     0.004307
NI582   NI        0.195617    0.148302    0.238988     0.004307
NI583   NI        0.198989    0.214951    0.236158     0.004307
NI584   NI        0.224466    0.188903    0.236541     0.004307
PD585   PD        0.231344    0.208286    0.270926     0.005394
NI586   NI        0.269096    0.173574    0.254558     0.004307
PD587   PD        0.264552    0.213455    0.238566     0.005394
NI588   NI        0.297793    0.172229    0.237873     0.004307
PD589   PD        0.300210    0.203429    0.271805     0.005394
NI590   NI        0.314931    0.154125    0.262980     0.004307
NI591   NI        0.334340    0.207342    0.236903     0.004307
NI592   NI        0.360590    0.170349    0.221668     0.004307
NI593   NI        0.364013    0.212978    0.271103     0.004307
PD594   PD        0.403649    0.176856    0.273445     0.005394
NI595   NI        0.403616    0.206383    0.216102     0.004307
PD596   PD        0.438071    0.178587    0.239015     0.005394
NI597   NI        0.437120    0.199561    0.251283     0.004307
PD598   PD        0.468438    0.170952    0.271104     0.005394
NI599   NI        0.471778    0.174421    0.231753     0.004307
NI600   NI        0.523549    0.162581    0.209506     0.004307
PD601   PD        0.518323    0.203511    0.262367     0.005394
NI602   NI        0.528848    0.158326    0.254269     0.004307
NI603   NI        0.538507    0.201574    0.238241     0.004307
NI604   NI        0.583089    0.173835    0.230202     0.004307
NI605   NI        0.583695    0.191008    0.275048     0.004307
NI606   NI        0.618324    0.151329    0.243855     0.004307
NI607   NI        0.607174    0.213570    0.241443     0.004307
NI608   NI        0.644361    0.141674    0.203615     0.004307
NI609   NI        0.653405    0.194678    0.278891     0.004307
NI610   NI        0.686150    0.160193    0.263283     0.004307
NI611   NI        0.684979    0.201130    0.243065     0.004307
NI612   NI        0.716426    0.244434    0.230254     0.004307
NI613   NI        0.059338    0.280318    0.237879     0.004307
NI614   NI        0.134054    0.245765    0.268820     0.004307
NI615   NI        0.128671    0.279210    0.236352     0.004307
NI616   NI        0.141012    0.236798    0.241330     0.004307
NI617   NI        0.152676    0.281607    0.255449     0.004307
NI618   NI        0.201253    0.228750    0.257240     0.004307
NI619   NI        0.197448    0.271440    0.234749     0.004307
NI620   NI        0.232452    0.248113    0.240950     0.004307
PD621   PD        0.219230    0.291630    0.259581     0.005394
PD622   PD        0.265520    0.241776    0.272196     0.005394
PD623   PD        0.264750    0.277204    0.238695     0.005394
NI624   NI        0.299154    0.253786    0.225337     0.004307
PD625   PD        0.305105    0.284411    0.260210     0.005394
PD626   PD        0.335871    0.239318    0.271943     0.005394
PD627   PD        0.336589    0.274933    0.238535     0.005394
NI628   NI        0.357458    0.214682    0.227746     0.004307
PD629   PD        0.373278    0.267449    0.262995     0.005394
PD630   PD        0.398966    0.228242    0.275694     0.005394
PD631   PD        0.401573    0.286413    0.234452     0.005394
PD632   PD        0.422573    0.241406    0.234754     0.005394
PD633   PD        0.430201    0.274794    0.270384     0.005394
NI634   NI        0.464700    0.240295    0.269549     0.004307
PD635   PD        0.453584    0.270918    0.227760     0.005394
PD636   PD        0.513175    0.241372    0.231997     0.005394
PD637   PD        0.501529    0.275687    0.272700     0.005394
PD638   PD        0.549843    0.240280    0.263416     0.005394
PD639   PD        0.546378    0.276526    0.230128     0.005394
NI640   NI        0.569998    0.238059    0.236437     0.004307
PD641   PD        0.583167    0.275432    0.263233     0.005394
NI642   NI        0.606517    0.234369    0.272507     0.004307
NI643   NI        0.607202    0.259227    0.231390     0.004307
NI644   NI        0.649910    0.243017    0.228837     0.004307
NI645   NI        0.630307    0.275415    0.272644     0.004307
NI646   NI        0.681845    0.243404    0.264039     0.004307
NI647   NI        0.705623    0.264078    0.220365     0.004307
NI648   NI        0.710056    0.238248    0.240576     0.004307
NI649   NI        0.719242    0.278347    0.262123     0.004307
NI650   NI        0.746866    0.244842    0.271849     0.004307
NI651   NI        0.749757    0.278125    0.227581     0.004307
NI652   NI        0.781361    0.274164    0.259561     0.004307
NI653   NI        0.068042    0.352054    0.279194     0.004307
NI654   NI        0.117939    0.307129    0.262713     0.004307
NI655   NI        0.131729    0.351651    0.239700     0.004307
NI656   NI        0.147897    0.321661    0.231140     0.004307
NI657   NI        0.162049    0.345844    0.273486     0.004307
NI658   NI        0.202535    0.298135    0.268739     0.004307
NI659   NI        0.190552    0.344305    0.235339     0.004307
NI660   NI        0.225567    0.320358    0.233742     0.004307
PD661   PD        0.226252    0.356487    0.260444     0.005394
PD662   PD        0.263354    0.308085    0.254439     0.005394
NI663   NI        0.258920    0.344874    0.225518     0.004307
PD664   PD        0.292337    0.316056    0.249770     0.005394
PD665   PD        0.305266    0.328774    0.247926     0.005394
PD666   PD        0.332742    0.321631    0.263762     0.005394
PD667   PD        0.335623    0.342561    0.238655     0.005394
PD668   PD        0.355955    0.299642    0.230539     0.005394
PD669   PD        0.365663    0.348561    0.275361     0.005394
PD670   PD        0.395397    0.309184    0.255574     0.005394
PD671   PD        0.412883    0.344186    0.226016     0.005394
PD672   PD        0.430224    0.324246    0.238234     0.005394
PD673   PD        0.429713    0.353456    0.251788     0.005394
PD674   PD        0.475824    0.317151    0.271428     0.005394
PD675   PD        0.469425    0.352471    0.224980     0.005394
NI676   NI        0.504844    0.326039    0.210460     0.004307
PD677   PD        0.508910    0.349013    0.277548     0.005394
PD678   PD        0.548848    0.309273    0.262314     0.005394
PD679   PD        0.544672    0.344625    0.231951     0.005394
PD680   PD        0.569345    0.320097    0.252771     0.005394
PD681   PD        0.573736    0.366756    0.261427     0.005394
PD682   PD        0.615142    0.312420    0.263392     0.005394
PD683   PD        0.615263    0.346924    0.230232     0.005394
PD684   PD        0.649193    0.312006    0.229849     0.005394
PD685   PD        0.649889    0.345850    0.263490     0.005394
PD686   PD        0.685419    0.312655    0.263559     0.005394
PD687   PD        0.681980    0.345607    0.229318     0.005394
PD688   PD        0.716494    0.311814    0.227923     0.005394
NI689   NI        0.716949    0.364903    0.239326     0.004307
NI690   NI        0.751885    0.311129    0.261043     0.004307
NI691   NI        0.751108    0.346997    0.228920     0.004307
NI692   NI        0.790759    0.335149    0.256773     0.004307
NI693   NI        0.046497    0.402228    0.254026     0.004307
NI694   NI        0.093624    0.377914    0.223564     0.004307
NI695   NI        0.073529    0.442169    0.261638     0.004307
NI696   NI        0.124710    0.386441    0.275365     0.004307
NI697   NI        0.121100    0.425456    0.239030     0.004307
NI698   NI        0.135854    0.380266    0.241837     0.004307
NI699   NI        0.148250    0.410748    0.275805     0.004307
NI700   NI        0.198750    0.375144    0.270465     0.004307
NI701   NI        0.212593    0.414183    0.230290     0.004307
NI702   NI        0.227674    0.381665    0.221917     0.004307
NI703   NI        0.206292    0.396900    0.265013     0.004307
PD704   PD        0.269089    0.373138    0.246660     0.005394
PD705   PD        0.260493    0.411816    0.238534     0.005394
PD706   PD        0.289506    0.374525    0.246148     0.005394
PD707   PD        0.292606    0.406131    0.271408     0.005394
PD708   PD        0.335067    0.385845    0.261144     0.005394
PD709   PD        0.327137    0.425797    0.232012     0.005394
PD710   PD        0.363190    0.380198    0.239481     0.005394
PD711   PD        0.356771    0.418721    0.269652     0.005394
PD712   PD        0.396596    0.387507    0.281827     0.005394
PD713   PD        0.386750    0.421382    0.232000     0.005394
PD714   PD        0.425848    0.373181    0.236677     0.005394
PD715   PD        0.441702    0.409959    0.272721     0.005394
PD716   PD        0.477301    0.382460    0.265354     0.005394
PD717   PD        0.481415    0.417157    0.228759     0.005394
PD718   PD        0.509801    0.376053    0.234529     0.005394
PD719   PD        0.516003    0.432776    0.280954     0.005394
PD720   PD        0.544555    0.377786    0.266196     0.005394
PD721   PD        0.528849    0.411470    0.229792     0.005394
PD722   PD        0.560599    0.387758    0.224974     0.005394
PD723   PD        0.581240    0.413408    0.263470     0.005394
PD724   PD        0.615196    0.381073    0.263629     0.005394
PD725   PD        0.613162    0.416508    0.230956     0.005394
PD726   PD        0.649038    0.381832    0.230409     0.005394
PD727   PD        0.648448    0.416511    0.263327     0.005394
PD728   PD        0.681966    0.381096    0.262952     0.005394
NI729   NI        0.681798    0.432956    0.218824     0.004307
PD730   PD        0.716548    0.380854    0.228043     0.005394
PD731   PD        0.717396    0.415052    0.265043     0.005394
NI732   NI        0.750300    0.382673    0.262144     0.004307
NI733   NI        0.777744    0.410021    0.223312     0.004307
NI734   NI        0.783460    0.386410    0.229538     0.004307
NI735   NI        0.774111    0.417448    0.271644     0.004307
NI736   NI        0.839084    0.383947    0.276242     0.004307
NI737   NI        0.060022    0.441792    0.263077     0.004307
NI738   NI        0.085204    0.443656    0.220635     0.004307
NI739   NI        0.093724    0.474617    0.259504     0.004307
NI740   NI        0.122203    0.445423    0.253386     0.004307
NI741   NI        0.117994    0.473742    0.232394     0.004307
NI742   NI        0.157228    0.453197    0.220953     0.004307
PD743   PD        0.160840    0.477095    0.271393     0.005394
PD744   PD        0.185981    0.439280    0.256739     0.005394
NI745   NI        0.182919    0.493231    0.232454     0.004307
PD746   PD        0.238309    0.452300    0.238218     0.005394
PD747   PD        0.234851    0.505142    0.271416     0.005394
PD748   PD        0.257089    0.462865    0.264693     0.005394
PD749   PD        0.264730    0.493172    0.236795     0.005394
PD750   PD        0.292484    0.455136    0.237146     0.005394
PD751   PD        0.298361    0.488838    0.268183     0.005394
PD752   PD        0.338705    0.465617    0.259149     0.005394
PD753   PD        0.330819    0.487525    0.236136     0.005394
PD754   PD        0.361655    0.455184    0.217647     0.005394
PD755   PD        0.378937    0.483087    0.278509     0.005394
PD756   PD        0.406846    0.446823    0.268798     0.005394
PD757   PD        0.404258    0.503817    0.226911     0.005394
PD758   PD        0.441546    0.445472    0.237790     0.005394
PD759   PD        0.443522    0.478419    0.270552     0.005394
PD760   PD        0.474863    0.441877    0.258226     0.005394
PD761   PD        0.461258    0.494510    0.229412     0.005394
PD762   PD        0.510062    0.452740    0.212454     0.005394
PD763   PD        0.511833    0.480230    0.275578     0.005394
PD764   PD        0.545812    0.446372    0.260718     0.005394
PD765   PD        0.546447    0.491577    0.228131     0.005394
PD766   PD        0.579942    0.449915    0.230715     0.005394
PD767   PD        0.565414    0.493497    0.250916     0.005394
PD768   PD        0.613177    0.448941    0.265594     0.005394
PD769   PD        0.607671    0.493532    0.224948     0.005394
PD770   PD        0.647264    0.448620    0.230713     0.005394
PD771   PD        0.643928    0.492893    0.262374     0.005394
PD772   PD        0.683948    0.448601    0.266642     0.005394
PD773   PD        0.682046    0.482251    0.231103     0.005394
NI774   NI        0.734372    0.471447    0.221758     0.004307
NI775   NI        0.718294    0.497805    0.260958     0.004307
NI776   NI        0.747036    0.454685    0.266546     0.004307
NI777   NI        0.745246    0.487322    0.233002     0.004307
NI778   NI        0.768984    0.468504    0.225031     0.004307
NI779   NI        0.796160    0.504038    0.286646     0.004307
NI780   NI        0.839795    0.451532    0.265815     0.004307
NI781   NI        0.041249    0.517981    0.282588     0.004307
NI782   NI        0.093335    0.522769    0.251578     0.004307
NI783   NI        0.078874    0.564916    0.272550     0.004307
NI784   NI        0.131431    0.533552    0.252658     0.004307
NI785   NI        0.120152    0.547637    0.220345     0.004307
NI786   NI        0.176916    0.521510    0.244183     0.004307
NI787   NI        0.159710    0.566457    0.273510     0.004307
PD788   PD        0.189420    0.528502    0.265205     0.005394
PD789   PD        0.188398    0.566443    0.236442     0.005394
PD790   PD        0.215129    0.530094    0.235323     0.005394
PD791   PD        0.221897    0.564461    0.268953     0.005394
PD792   PD        0.250868    0.527349    0.267377     0.005394
PD793   PD        0.253459    0.559788    0.232852     0.005394
PD794   PD        0.282212    0.521552    0.238929     0.005394
PD795   PD        0.300266    0.558256    0.275314     0.005394
PD796   PD        0.335375    0.525550    0.275552     0.005394
PD797   PD        0.320593    0.552085    0.217994     0.005394
PD798   PD        0.363043    0.527794    0.218689     0.005394
PD799   PD        0.367593    0.578275    0.245931     0.005394
PD800   PD        0.387678    0.523976    0.258130     0.005394
PD801   PD        0.403503    0.549702    0.232537     0.005394
PD802   PD        0.439807    0.516003    0.231406     0.005394
PD803   PD        0.439836    0.561109    0.265364     0.005394
PD804   PD        0.468799    0.518416    0.270992     0.005394
PD805   PD        0.470994    0.542764    0.230777     0.005394
PD806   PD        0.520295    0.508285    0.247864     0.005394
PD807   PD        0.505524    0.546463    0.265768     0.005394
PD808   PD        0.543609    0.527379    0.262993     0.005394
PD809   PD        0.536492    0.546313    0.226892     0.005394
PD810   PD        0.578337    0.530925    0.228558     0.005394
PD811   PD        0.585600    0.553531    0.271167     0.005394
PD812   PD        0.608895    0.524607    0.260990     0.005394
PD813   PD        0.611381    0.562356    0.229693     0.005394
NI814   NI        0.647925    0.503440    0.216838     0.004307
PD815   PD        0.631830    0.558154    0.270591     0.005394
NI816   NI        0.683484    0.504877    0.278264     0.004307
NI817   NI        0.675615    0.557056    0.234990     0.004307
NI818   NI        0.711477    0.520154    0.231731     0.004307
PD819   PD        0.714058    0.558944    0.263785     0.005394
NI820   NI        0.746509    0.521924    0.267795     0.004307
NI821   NI        0.771890    0.548796    0.221075     0.004307
NI822   NI        0.776222    0.518384    0.214664     0.004307
NI823   NI        0.805595    0.546552    0.268174     0.004307
NI824   NI        0.837192    0.535550    0.270297     0.004307
NI825   NI        0.077014    0.617875    0.270982     0.004307
NI826   NI        0.118029    0.592636    0.270939     0.004307
NI827   NI        0.139277    0.628030    0.245583     0.004307
NI828   NI        0.148482    0.587365    0.220351     0.004307
NI829   NI        0.154961    0.622313    0.252781     0.004307
NI830   NI        0.193605    0.605086    0.269226     0.004307
NI831   NI        0.198492    0.614529    0.236307     0.004307
PD832   PD        0.224288    0.598827    0.236716     0.005394
NI833   NI        0.234186    0.625802    0.271898     0.004307
PD834   PD        0.261856    0.590893    0.268892     0.005394
PD835   PD        0.265654    0.625396    0.237105     0.005394
NI836   NI        0.287985    0.585694    0.220698     0.004307
NI837   NI        0.315384    0.643083    0.258746     0.004307
PD838   PD        0.330605    0.603976    0.255142     0.005394
PD839   PD        0.348645    0.631898    0.231664     0.005394
PD840   PD        0.369978    0.587268    0.231180     0.005394
PD841   PD        0.366171    0.630440    0.273718     0.005394
PD842   PD        0.405763    0.604312    0.258113     0.005394
PD843   PD        0.405706    0.618785    0.235018     0.005394
PD844   PD        0.450530    0.599351    0.237364     0.005394
PD845   PD        0.438567    0.641196    0.259068     0.005394
PD846   PD        0.472847    0.594839    0.267675     0.005394
PD847   PD        0.472693    0.626780    0.233833     0.005394
PD848   PD        0.509041    0.596070    0.230796     0.005394
PD849   PD        0.508679    0.629240    0.268631     0.005394
PD850   PD        0.560303    0.596625    0.275711     0.005394
PD851   PD        0.534021    0.614156    0.239004     0.005394
PD852   PD        0.576898    0.595230    0.231697     0.005394
PD853   PD        0.577901    0.634670    0.288768     0.005394
PD854   PD        0.610227    0.594365    0.265331     0.005394
PD855   PD        0.611872    0.629956    0.232088     0.005394
PD856   PD        0.647259    0.596941    0.230917     0.005394
NI857   NI        0.635415    0.641589    0.246802     0.004307
PD858   PD        0.679655    0.594372    0.266136     0.005394
PD859   PD        0.679855    0.629356    0.229904     0.005394
NI860   NI        0.720556    0.608334    0.227824     0.004307
NI861   NI        0.735252    0.617708    0.271343     0.004307
NI862   NI        0.730114    0.605896    0.274983     0.004307
NI863   NI        0.762007    0.631707    0.220351     0.004307
NI864   NI        0.773934    0.606546    0.258512     0.004307
NI865   NI        0.132645    0.663819    0.273389     0.004307
NI866   NI        0.145986    0.657381    0.228749     0.004307
NI867   NI        0.156168    0.714831    0.273821     0.004307
NI868   NI        0.202003    0.653524    0.270214     0.004307
NI869   NI        0.173494    0.691757    0.209012     0.004307
NI870   NI        0.235620    0.662314    0.235622     0.004307
NI871   NI        0.222016    0.697193    0.267600     0.004307
NI872   NI        0.264003    0.676931    0.274869     0.004307
NI873   NI        0.262567    0.696557    0.213028     0.004307
NI874   NI        0.289399    0.667104    0.235217     0.004307
PD875   PD        0.305408    0.692961    0.266430     0.005394
PD876   PD        0.319850    0.648703    0.265681     0.005394
PD877   PD        0.336035    0.679643    0.233177     0.005394
NI878   NI        0.344118    0.677900    0.229745     0.004307
PD879   PD        0.371841    0.698436    0.268117     0.005394
PD880   PD        0.404721    0.661244    0.268805     0.005394
NI881   NI        0.380866    0.694949    0.227934     0.004307
NI882   NI        0.435110    0.656250    0.217936     0.004307
PD883   PD        0.440938    0.698032    0.269916     0.005394
PD884   PD        0.474492    0.663147    0.266489     0.005394
PD885   PD        0.471350    0.695789    0.233279     0.005394
NI886   NI        0.515032    0.644004    0.221861     0.004307
NI887   NI        0.506406    0.690087    0.244163     0.004307
PD888   PD        0.542349    0.664221    0.267126     0.005394
PD889   PD        0.541402    0.697695    0.231328     0.005394
PD890   PD        0.578765    0.664486    0.232061     0.005394
PD891   PD        0.576431    0.697144    0.266315     0.005394
PD892   PD        0.610480    0.663163    0.266475     0.005394
PD893   PD        0.609606    0.696051    0.230747     0.005394
PD894   PD        0.645784    0.663842    0.232389     0.005394
PD895   PD        0.645548    0.696906    0.266371     0.005394
PD896   PD        0.679680    0.662993    0.266187     0.005394
NI897   NI        0.678638    0.697568    0.231541     0.004307
NI898   NI        0.715418    0.663966    0.234148     0.004307
NI899   NI        0.720117    0.666122    0.267943     0.004307
NI900   NI        0.763728    0.653001    0.265471     0.004307
NI901   NI        0.198445    0.737867    0.272731     0.004307
NI902   NI        0.235085    0.729999    0.231354     0.004307
NI903   NI        0.231972    0.757106    0.269750     0.004307
NI904   NI        0.253155    0.719038    0.254493     0.004307
NI905   NI        0.249591    0.754766    0.232293     0.004307
NI906   NI        0.281948    0.739345    0.218703     0.004307
NI907   NI        0.302914    0.760927    0.267869     0.004307
PD908   PD        0.336786    0.729893    0.268611     0.005394
NI909   NI        0.335775    0.762553    0.235408     0.004307
NI910   NI        0.379782    0.747354    0.223061     0.004307
PD911   PD        0.371359    0.765611    0.267507     0.005394
NI912   NI        0.407426    0.727399    0.250288     0.004307
PD913   PD        0.405106    0.765241    0.232023     0.005394
PD914   PD        0.438695    0.729223    0.233584     0.005394
PD915   PD        0.439557    0.766785    0.266489     0.005394
NI916   NI        0.477994    0.720873    0.269416     0.004307
PD917   PD        0.473814    0.764084    0.232735     0.005394
PD918   PD        0.507587    0.730928    0.231570     0.005394
PD919   PD        0.508909    0.765098    0.264292     0.005394
PD920   PD        0.542229    0.730631    0.266394     0.005394
PD921   PD        0.540956    0.764556    0.230590     0.005394
PD922   PD        0.576135    0.732235    0.231239     0.005394
PD923   PD        0.577358    0.766544    0.265847     0.005394
PD924   PD        0.610587    0.731411    0.265095     0.005394
NI925   NI        0.612081    0.765233    0.229983     0.004307
NI926   NI        0.645587    0.732117    0.231263     0.004307
NI927   NI        0.645105    0.764838    0.265234     0.004307
NI928   NI        0.678724    0.752695    0.258528     0.004307
NI929   NI        0.266392    0.786486    0.264734     0.004307
NI930   NI        0.333774    0.787166    0.278318     0.004307
NI931   NI        0.367837    0.804841    0.247646     0.004307
NI932   NI        0.378985    0.849121    0.255340     0.004307
NI933   NI        0.393516    0.811207    0.280340     0.004307
NI934   NI        0.436842    0.798664    0.231741     0.004307
NI935   NI        0.439398    0.868719    0.300311     0.004307
PD936   PD        0.474968    0.799727    0.264453     0.005394
NI937   NI        0.509755    0.798711    0.230440     0.004307
NI938   NI        0.509294    0.832990    0.266008     0.004307
PD939   PD        0.542612    0.798825    0.265472     0.005394
NI940   NI        0.611298    0.798952    0.265282     0.004307
NI941   NI        0.286899    0.053434    0.350762     0.004307
NI942   NI        0.334479    0.072043    0.304024     0.004307
PD943   PD        0.370010    0.069631    0.339890     0.005394
NI944   NI        0.386807    0.074957    0.295906     0.004307
NI945   NI        0.438397    0.078118    0.327302     0.004307
NI946   NI        0.469914    0.073249    0.306294     0.004307
NI947   NI        0.506975    0.070433    0.341914     0.004307
NI948   NI        0.548181    0.091236    0.292532     0.004307
NI949   NI        0.578563    0.086365    0.339615     0.004307
NI950   NI        0.196523    0.134640    0.304588     0.004307
NI951   NI        0.230434    0.136441    0.338495     0.004307
NI952   NI        0.265812    0.104242    0.337750     0.004307
NI953   NI        0.265705    0.139837    0.304080     0.004307
NI954   NI        0.280223    0.078581    0.300954     0.004307
PD955   PD        0.299626    0.137603    0.340006     0.005394
PD956   PD        0.334030    0.104537    0.339958     0.005394
PD957   PD        0.335971    0.142177    0.306413     0.005394
NI958   NI        0.361077    0.113425    0.316819     0.004307
NI959   NI        0.342025    0.105974    0.335175     0.004307
PD960   PD        0.401637    0.104687    0.340325     0.005394
NI961   NI        0.398143    0.123346    0.295015     0.004307
NI962   NI        0.453884    0.096020    0.285842     0.004307
PD963   PD        0.434704    0.141307    0.341920     0.005394
NI964   NI        0.470685    0.139002    0.334126     0.004307
PD965   PD        0.471014    0.139988    0.307890     0.005394
NI966   NI        0.520783    0.104537    0.317524     0.004307
PD967   PD        0.503430    0.141692    0.340631     0.005394
PD968   PD        0.539029    0.107223    0.340665     0.005394
NI969   NI        0.543766    0.140472    0.297705     0.004307
NI970   NI        0.586747    0.123973    0.295330     0.004307
NI971   NI        0.595970    0.130780    0.346826     0.004307
NI972   NI        0.621920    0.104185    0.326457     0.004307
NI973   NI        0.608172    0.141824    0.309095     0.004307
NI974   NI        0.642279    0.142589    0.340658     0.004307
NI975   NI        0.677522    0.112604    0.275533     0.004307
NI976   NI        0.133342    0.231407    0.318098     0.004307
NI977   NI        0.161624    0.172987    0.303605     0.004307
NI978   NI        0.162366    0.204619    0.338050     0.004307
NI979   NI        0.195392    0.169121    0.339148     0.004307
NI980   NI        0.195630    0.205073    0.303901     0.004307
PD981   PD        0.231408    0.172193    0.305324     0.005394
NI982   NI        0.206249    0.228780    0.360830     0.004307
NI983   NI        0.269165    0.157756    0.327168     0.004307
PD984   PD        0.266834    0.204785    0.305523     0.005394
PD985   PD        0.300840    0.172044    0.305984     0.005394
PD986   PD        0.298977    0.206067    0.339669     0.005394
PD987   PD        0.334354    0.172587    0.340687     0.005394
PD988   PD        0.332442    0.208731    0.306252     0.005394
NI989   NI        0.364758    0.176020    0.286947     0.004307
PD990   PD        0.365911    0.207910    0.342717     0.005394
PD991   PD        0.401471    0.173816    0.340986     0.005394
PD992   PD        0.400813    0.207029    0.305723     0.005394
PD993   PD        0.436830    0.172550    0.307396     0.005394
PD994   PD        0.434950    0.209153    0.342064     0.005394
PD995   PD        0.470039    0.175908    0.342812     0.005394
NI996   NI        0.473456    0.190676    0.279091     0.004307
PD997   PD        0.505394    0.172780    0.306788     0.005394
PD998   PD        0.503095    0.209597    0.343358     0.005394
PD999   PD        0.538146    0.176295    0.341290     0.005394
NI1000   NI        0.531263    0.211432    0.307154     0.004307
NI1001   NI        0.580083    0.175223    0.297060     0.004307
PD1002   PD        0.571008    0.208026    0.339009     0.005394
NI1003   NI        0.630315    0.181332    0.330462     0.004307
NI1004   NI        0.609663    0.205592    0.306450     0.004307
NI1005   NI        0.637806    0.193084    0.310849     0.004307
NI1006   NI        0.641694    0.202381    0.341267     0.004307
NI1007   NI        0.675095    0.179121    0.340591     0.004307
NI1008   NI        0.693840    0.230533    0.306369     0.004307
NI1009   NI        0.718451    0.174480    0.295211     0.004307
NI1010   NI        0.710199    0.196717    0.337626     0.004307
NI1011   NI        0.742526    0.212861    0.305489     0.004307
NI1012   NI        0.096895    0.279255    0.336924     0.004307
NI1013   NI        0.127809    0.238538    0.339220     0.004307
NI1014   NI        0.147612    0.284339    0.296810     0.004307
NI1015   NI        0.165249    0.241285    0.283181     0.004307
PD1016   PD        0.160710    0.275218    0.341438     0.005394
NI1017   NI        0.183961    0.248725    0.361588     0.004307
NI1018   NI        0.193507    0.277192    0.287665     0.004307
NI1019   NI        0.229220    0.235587    0.304312     0.004307
PD1020   PD        0.231028    0.275137    0.342419     0.005394
NI1021   NI        0.244244    0.226186    0.329943     0.004307
PD1022   PD        0.272401    0.293540    0.291043     0.005394
PD1023   PD        0.298315    0.240276    0.306387     0.005394
PD1024   PD        0.303756    0.279099    0.330991     0.005394
PD1025   PD        0.331009    0.241617    0.340494     0.005394
PD1026   PD        0.334351    0.277866    0.293667     0.005394
PD1027   PD        0.366566    0.242411    0.307194     0.005394
PD1028   PD        0.364941    0.276083    0.342620     0.005394
PD1029   PD        0.399778    0.243602    0.340487     0.005394
PD1030   PD        0.400159    0.275978    0.310561     0.005394
PD1031   PD        0.439847    0.236602    0.297690     0.005394
PD1032   PD        0.438248    0.281061    0.323051     0.005394
PD1033   PD        0.473333    0.243801    0.331102     0.005394
PD1034   PD        0.470986    0.295682    0.288706     0.005394
PD1035   PD        0.519369    0.231226    0.316293     0.005394
PD1036   PD        0.500807    0.265215    0.347524     0.005394
PD1037   PD        0.529844    0.232057    0.325827     0.005394
PD1038   PD        0.526351    0.275892    0.306718     0.005394
PD1039   PD        0.581740    0.243330    0.298687     0.005394
PD1040   PD        0.583380    0.278276    0.332832     0.005394
PD1041   PD        0.615313    0.243936    0.332912     0.005394
PD1042   PD        0.615793    0.274501    0.297868     0.005394
PD1043   PD        0.647361    0.239105    0.297785     0.005394
PD1044   PD        0.650600    0.276031    0.331803     0.005394
NI1045   NI        0.699646    0.241050    0.333188     0.004307
NI1046   NI        0.662927    0.282296    0.290447     0.004307
NI1047   NI        0.730392    0.213708    0.308580     0.004307
NI1048   NI        0.719510    0.278788    0.330994     0.004307
NI1049   NI        0.754613    0.245634    0.332823     0.004307
NI1050   NI        0.772289    0.266157    0.307404     0.004307
NI1051   NI        0.769026    0.287439    0.341994     0.004307
NI1052   NI        0.043050    0.307303    0.322866     0.004307
NI1053   NI        0.045322    0.359503    0.321567     0.004307
NI1054   NI        0.097334    0.315289    0.304876     0.004307
NI1055   NI        0.080372    0.336153    0.323929     0.004307
NI1056   NI        0.129111    0.310099    0.339700     0.004307
NI1057   NI        0.130962    0.348878    0.305894     0.004307
NI1058   NI        0.163051    0.314001    0.290388     0.004307
NI1059   NI        0.141124    0.355869    0.342739     0.004307
PD1060   PD        0.198248    0.308629    0.339586     0.005394
NI1061   NI        0.195876    0.358864    0.299845     0.004307
PD1062   PD        0.228849    0.303389    0.303972     0.005394
PD1063   PD        0.229364    0.344640    0.325318     0.005394
NI1064   NI        0.265208    0.307071    0.327920     0.004307
PD1065   PD        0.240097    0.342956    0.305346     0.005394
PD1066   PD        0.286320    0.326754    0.292961     0.005394
PD1067   PD        0.298153    0.342637    0.329166     0.005394
PD1068   PD        0.342293    0.307862    0.331489     0.005394
PD1069   PD        0.339027    0.343099    0.305868     0.005394
PD1070   PD        0.365652    0.313727    0.288212     0.005394
PD1071   PD        0.362312    0.343809    0.341962     0.005394
PD1072   PD        0.400865    0.310013    0.340554     0.005394
PD1073   PD        0.399576    0.346084    0.308148     0.005394
PD1074   PD        0.429348    0.317414    0.285346     0.005394
PD1075   PD        0.432523    0.344287    0.343595     0.005394
PD1076   PD        0.467413    0.308714    0.338962     0.005394
PD1077   PD        0.467286    0.344008    0.307020     0.005394
PD1078   PD        0.501626    0.313104    0.308925     0.005394
PD1079   PD        0.505574    0.352725    0.336428     0.005394
PD1080   PD        0.544137    0.311587    0.328205     0.005394
PD1081   PD        0.547675    0.343458    0.294725     0.005394
PD1082   PD        0.581435    0.310630    0.297092     0.005394
PD1083   PD        0.580890    0.343070    0.332115     0.005394
PD1084   PD        0.617206    0.309775    0.330554     0.005394
PD1085   PD        0.615507    0.345782    0.298794     0.005394
PD1086   PD        0.650382    0.313314    0.297145     0.005394
PD1087   PD        0.648749    0.346100    0.332376     0.005394
NI1088   NI        0.691129    0.299412    0.320623     0.004307
PD1089   PD        0.684502    0.347170    0.298398     0.005394
NI1090   NI        0.734691    0.317151    0.306937     0.004307
PD1091   PD        0.710865    0.347900    0.340478     0.005394
NI1092   NI        0.742177    0.319016    0.320437     0.004307
NI1093   NI        0.740979    0.342789    0.311313     0.004307
NI1094   NI        0.787294    0.314917    0.295077     0.004307
NI1095   NI        0.775370    0.348607    0.339677     0.004307
NI1096   NI        0.843891    0.307290    0.308852     0.004307
NI1097   NI        0.832620    0.370444    0.309751     0.004307
NI1098   NI        0.058875    0.376075    0.341159     0.004307
NI1099   NI        0.065479    0.413141    0.298069     0.004307
NI1100   NI        0.090053    0.375772    0.308518     0.004307
NI1101   NI        0.092742    0.425590    0.335644     0.004307
NI1102   NI        0.105086    0.367528    0.351059     0.004307
NI1103   NI        0.110512    0.420506    0.308038     0.004307
NI1104   NI        0.161156    0.378450    0.308127     0.004307
NI1105   NI        0.154895    0.428295    0.319682     0.004307
PD1106   PD        0.203264    0.379637    0.346592     0.005394
PD1107   PD        0.173632    0.441324    0.302579     0.005394
PD1108   PD        0.230583    0.377910    0.305741     0.005394
PD1109   PD        0.215756    0.427772    0.325680     0.005394
PD1110   PD        0.263525    0.378718    0.342288     0.005394
PD1111   PD        0.262112    0.415930    0.308700     0.005394
PD1112   PD        0.302450    0.372193    0.293455     0.005394
PD1113   PD        0.279352    0.412573    0.336738     0.005394
PD1114   PD        0.332025    0.379457    0.342595     0.005394
PD1115   PD        0.343470    0.415907    0.313681     0.005394
PD1116   PD        0.370231    0.376721    0.289233     0.005394
PD1117   PD        0.364498    0.412118    0.342196     0.005394
PD1118   PD        0.418949    0.388658    0.326885     0.005394
PD1119   PD        0.413068    0.409057    0.310765     0.005394
PD1120   PD        0.442498    0.375423    0.288013     0.005394
PD1121   PD        0.440882    0.420907    0.330765     0.005394
PD1122   PD        0.464827    0.377699    0.339906     0.005394
PD1123   PD        0.476414    0.411322    0.293239     0.005394
PD1124   PD        0.511914    0.375471    0.293941     0.005394
PD1125   PD        0.499293    0.410947    0.335122     0.005394
PD1126   PD        0.545890    0.375766    0.348164     0.005394
PD1127   PD        0.541144    0.423382    0.313467     0.005394
PD1128   PD        0.582933    0.379568    0.297741     0.005394
PD1129   PD        0.581104    0.412938    0.333297     0.005394
PD1130   PD        0.614576    0.377502    0.331982     0.005394
PD1131   PD        0.615747    0.413380    0.298205     0.005394
PD1132   PD        0.650040    0.380419    0.298159     0.005394
PD1133   PD        0.666359    0.419635    0.338149     0.005394
PD1134   PD        0.693071    0.383921    0.318972     0.005394
PD1135   PD        0.683256    0.414554    0.298047     0.005394
PD1136   PD        0.717134    0.380376    0.298136     0.005394
PD1137   PD        0.715090    0.415569    0.333601     0.005394
NI1138   NI        0.751467    0.373433    0.331757     0.004307
NI1139   NI        0.751806    0.408994    0.302645     0.004307
NI1140   NI        0.797738    0.372750    0.293781     0.004307
NI1141   NI        0.798795    0.410476    0.347480     0.004307
NI1142   NI        0.832472    0.390714    0.323175     0.004307
NI1143   NI        0.826315    0.407274    0.279391     0.004307
NI1144   NI        0.047859    0.459918    0.342172     0.004307
NI1145   NI        0.046390    0.495485    0.309071     0.004307
NI1146   NI        0.078476    0.459514    0.304629     0.004307
NI1147   NI        0.099465    0.495851    0.334567     0.004307
NI1148   NI        0.111909    0.450096    0.335669     0.004307
NI1149   NI        0.130441    0.464991    0.300621     0.004307
PD1150   PD        0.152643    0.457183    0.285217     0.005394
PD1151   PD        0.145743    0.482946    0.325112     0.005394
NI1152   NI        0.187434    0.460907    0.332576     0.004307
PD1153   PD        0.173520    0.508757    0.303206     0.005394
PD1154   PD        0.217874    0.438343    0.317275     0.005394
PD1155   PD        0.214988    0.481654    0.336590     0.005394
PD1156   PD        0.263925    0.432664    0.329256     0.005394
PD1157   PD        0.261870    0.509001    0.319461     0.005394
PD1158   PD        0.279991    0.439696    0.298175     0.005394
PD1159   PD        0.301077    0.492519    0.341888     0.005394
PD1160   PD        0.329749    0.453263    0.340045     0.005394
PD1161   PD        0.331187    0.484706    0.304524     0.005394
PD1162   PD        0.362705    0.448725    0.306373     0.005394
PD1163   PD        0.363707    0.482104    0.339241     0.005394
PD1164   PD        0.397697    0.447344    0.338513     0.005394
PD1165   PD        0.398591    0.480869    0.304165     0.005394
PD1166   PD        0.445697    0.459324    0.293068     0.005394
PD1167   PD        0.437917    0.498531    0.320196     0.005394
PD1168   PD        0.486286    0.435582    0.341131     0.005394
PD1169   PD        0.482352    0.492393    0.310665     0.005394
PD1170   PD        0.505744    0.458237    0.289364     0.005394
PD1171   PD        0.511213    0.475261    0.340252     0.005394
PD1172   PD        0.558018    0.464904    0.331658     0.005394
PD1173   PD        0.546360    0.491573    0.294657     0.005394
PD1174   PD        0.578316    0.458230    0.291351     0.005394
PD1175   PD        0.575266    0.477297    0.333531     0.005394
PD1176   PD        0.612191    0.446163    0.349885     0.005394
PD1177   PD        0.613456    0.481688    0.298446     0.005394
PD1178   PD        0.647858    0.446674    0.300699     0.005394
PD1179   PD        0.647266    0.489432    0.330197     0.005394
NI1180   NI        0.669179    0.460135    0.349066     0.004307
NI1181   NI        0.684430    0.465800    0.273089     0.004307
PD1182   PD        0.715882    0.448692    0.302267     0.005394
NI1183   NI        0.717787    0.499421    0.341222     0.004307
NI1184   NI        0.745374    0.454206    0.334740     0.004307
PD1185   PD        0.743897    0.487857    0.302038     0.005394
NI1186   NI        0.781992    0.455970    0.299761     0.004307
NI1187   NI        0.776998    0.485077    0.339550     0.004307
NI1188   NI        0.841576    0.431557    0.346843     0.004307
NI1189   NI        0.800326    0.478230    0.301306     0.004307
NI1190   NI        0.067602    0.510262    0.332005     0.004307
NI1191   NI        0.059830    0.540335    0.297758     0.004307
NI1192   NI        0.091971    0.507619    0.304199     0.004307
NI1193   NI        0.087180    0.539990    0.347280     0.004307
NI1194   NI        0.117256    0.525742    0.340785     0.004307
NI1195   NI        0.118521    0.546391    0.289648     0.004307
NI1196   NI        0.158517    0.521506    0.288651     0.004307
PD1197   PD        0.154807    0.558404    0.340383     0.005394
PD1198   PD        0.183126    0.519014    0.339389     0.005394
PD1199   PD        0.186626    0.554304    0.305874     0.005394
PD1200   PD        0.216290    0.518829    0.301789     0.005394
PD1201   PD        0.223755    0.549262    0.339411     0.005394
PD1202   PD        0.251256    0.512813    0.335645     0.005394
PD1203   PD        0.253720    0.562725    0.302875     0.005394
PD1204   PD        0.292734    0.504977    0.281482     0.005394
PD1205   PD        0.284204    0.548338    0.337204     0.005394
PD1206   PD        0.312647    0.527488    0.309965     0.005394
PD1207   PD        0.321887    0.568113    0.287385     0.005394
PD1208   PD        0.365545    0.519359    0.305722     0.005394
PD1209   PD        0.368759    0.548170    0.342590     0.005394
PD1210   PD        0.407526    0.523715    0.330881     0.005394
PD1211   PD        0.399207    0.566036    0.314657     0.005394
PD1212   PD        0.442092    0.512715    0.302978     0.005394
PD1213   PD        0.437885    0.547096    0.333571     0.005394
PD1214   PD        0.477187    0.523015    0.333923     0.005394
PD1215   PD        0.465771    0.553065    0.307384     0.005394
PD1216   PD        0.509881    0.526133    0.296892     0.005394
PD1217   PD        0.509309    0.559112    0.331093     0.005394
PD1218   PD        0.544642    0.523557    0.331096     0.005394
PD1219   PD        0.538979    0.546771    0.305622     0.005394
PD1220   PD        0.578150    0.527025    0.296637     0.005394
PD1221   PD        0.577052    0.559057    0.333876     0.005394
PD1222   PD        0.613426    0.524373    0.330097     0.005394
PD1223   PD        0.610716    0.559727    0.299659     0.005394
PD1224   PD        0.645588    0.526316    0.295490     0.005394
PD1225   PD        0.646051    0.560036    0.332577     0.005394
PD1226   PD        0.679440    0.524002    0.331629     0.005394
PD1227   PD        0.681944    0.560759    0.299976     0.005394
PD1228   PD        0.716634    0.527206    0.300608     0.005394
PD1229   PD        0.714501    0.556860    0.334958     0.005394
PD1230   PD        0.744600    0.520385    0.338221     0.005394
NI1231   NI        0.758773    0.569445    0.277021     0.004307
NI1232   NI        0.780709    0.522413    0.299591     0.004307
NI1233   NI        0.803892    0.555805    0.334438     0.004307
NI1234   NI        0.830371    0.539993    0.350918     0.004307
NI1235   NI        0.816511    0.554398    0.307323     0.004307
NI1236   NI        0.051848    0.592811    0.340260     0.004307
NI1237   NI        0.087032    0.594769    0.305065     0.004307
NI1238   NI        0.083397    0.628399    0.341205     0.004307
PD1239   PD        0.119895    0.594945    0.339163     0.005394
NI1240   NI        0.119569    0.629370    0.305001     0.004307
NI1241   NI        0.138079    0.604494    0.294743     0.004307
NI1242   NI        0.146635    0.606901    0.338597     0.004307
NI1243   NI        0.177976    0.595623    0.321663     0.004307
NI1244   NI        0.207462    0.643643    0.295092     0.004307
PD1245   PD        0.221971    0.576652    0.292146     0.005394
PD1246   PD        0.222248    0.628668    0.338164     0.005394
PD1247   PD        0.264734    0.615838    0.323155     0.005394
NI1248   NI        0.265245    0.630448    0.300169     0.004307
PD1249   PD        0.300470    0.605997    0.292964     0.005394
PD1250   PD        0.289827    0.628117    0.335825     0.005394
PD1251   PD        0.338982    0.579956    0.337331     0.005394
PD1252   PD        0.342360    0.626181    0.298424     0.005394
PD1253   PD        0.368045    0.581740    0.278931     0.005394
PD1254   PD        0.371741    0.613998    0.335525     0.005394
PD1255   PD        0.403919    0.596101    0.340069     0.005394
PD1256   PD        0.404277    0.627518    0.300276     0.005394
PD1257   PD        0.424518    0.566863    0.323840     0.005394
PD1258   PD        0.440001    0.628912    0.335273     0.005394
PD1259   PD        0.471006    0.576498    0.351011     0.005394
PD1260   PD        0.473905    0.628730    0.301546     0.005394
PD1261   PD        0.494829    0.586824    0.290564     0.005394
PD1262   PD        0.508854    0.627964    0.334113     0.005394
PD1263   PD        0.542256    0.594709    0.333523     0.005394
PD1264   PD        0.531332    0.604881    0.286477     0.005394
PD1265   PD        0.569492    0.584627    0.307922     0.005394
PD1266   PD        0.575898    0.627201    0.334611     0.005394
PD1267   PD        0.612143    0.594560    0.333584     0.005394
PD1268   PD        0.609936    0.628088    0.298754     0.005394
PD1269   PD        0.646802    0.595337    0.299249     0.005394
PD1270   PD        0.644959    0.627311    0.333973     0.005394
PD1271   PD        0.681241    0.593662    0.334530     0.005394
NI1272   NI        0.702159    0.638938    0.315908     0.004307
NI1273   NI        0.725157    0.570628    0.319140     0.004307
PD1274   PD        0.714857    0.628649    0.334852     0.005394
NI1275   NI        0.745102    0.591337    0.337794     0.004307
NI1276   NI        0.747015    0.625749    0.302916     0.004307
NI1277   NI        0.779229    0.585860    0.306680     0.004307
NI1278   NI        0.780054    0.621781    0.339031     0.004307
NI1279   NI        0.847456    0.623620    0.340009     0.004307
NI1280   NI        0.118543    0.662153    0.340881     0.004307
NI1281   NI        0.131429    0.687379    0.303026     0.004307
NI1282   NI        0.156162    0.648815    0.286822     0.004307
NI1283   NI        0.167761    0.704182    0.338016     0.004307
NI1284   NI        0.199530    0.668820    0.339844     0.004307
NI1285   NI        0.177496    0.677898    0.304172     0.004307
NI1286   NI        0.242319    0.672209    0.288871     0.004307
NI1287   NI        0.227198    0.703629    0.323644     0.004307
PD1288   PD        0.254553    0.662613    0.335417     0.005394
NI1289   NI        0.274767    0.691120    0.314996     0.004307
NI1290   NI        0.298185    0.678611    0.283809     0.004307
NI1291   NI        0.292704    0.714434    0.347138     0.004307
PD1292   PD        0.349590    0.657355    0.334518     0.005394
PD1293   PD        0.338361    0.694418    0.301425     0.005394
PD1294   PD        0.372877    0.662560    0.305355     0.005394
PD1295   PD        0.371591    0.697799    0.336533     0.005394
PD1296   PD        0.407516    0.663945    0.336976     0.005394
PD1297   PD        0.405481    0.697335    0.302655     0.005394
PD1298   PD        0.439265    0.663219    0.301632     0.005394
PD1299   PD        0.439342    0.697959    0.335873     0.005394
PD1300   PD        0.475171    0.663462    0.337207     0.005394
PD1301   PD        0.473955    0.696808    0.301762     0.005394
PD1302   PD        0.508238    0.663653    0.300886     0.005394
PD1303   PD        0.508507    0.699039    0.335253     0.005394
PD1304   PD        0.542056    0.662565    0.335099     0.005394
PD1305   PD        0.543246    0.697753    0.301115     0.005394
PD1306   PD        0.576842    0.663703    0.300580     0.005394
PD1307   PD        0.573177    0.684888    0.352980     0.005394
PD1308   PD        0.611550    0.662697    0.333749     0.005394
NI1309   NI        0.605831    0.696880    0.319782     0.004307
PD1310   PD        0.644494    0.661970    0.300024     0.005394
PD1311   PD        0.644766    0.697455    0.335175     0.005394
PD1312   PD        0.680139    0.663155    0.335360     0.005394
NI1313   NI        0.686523    0.681769    0.299199     0.004307
NI1314   NI        0.735192    0.670365    0.303027     0.004307
NI1315   NI        0.711596    0.690364    0.338159     0.004307
NI1316   NI        0.739460    0.647957    0.345616     0.004307
NI1317   NI        0.751697    0.712680    0.294319     0.004307
NI1318   NI        0.182143    0.745282    0.294054     0.004307
NI1319   NI        0.200079    0.723668    0.335277     0.004307
NI1320   NI        0.201083    0.770635    0.299516     0.004307
NI1321   NI        0.235110    0.722116    0.300832     0.004307
NI1322   NI        0.236067    0.745969    0.348467     0.004307
PD1323   PD        0.268547    0.723021    0.335345     0.005394
NI1324   NI        0.252873    0.789218    0.308167     0.004307
PD1325   PD        0.302034    0.729002    0.301727     0.005394
NI1326   NI        0.298682    0.759201    0.337447     0.004307
PD1327   PD        0.338004    0.730226    0.334949     0.005394
NI1328   NI        0.346946    0.771445    0.322647     0.004307
PD1329   PD        0.369855    0.733712    0.302032     0.005394
PD1330   PD        0.369923    0.766910    0.336312     0.005394
NI1331   NI        0.388523    0.733922    0.344791     0.004307
NI1332   NI        0.411525    0.780004    0.315172     0.004307
PD1333   PD        0.439256    0.729311    0.300851     0.005394
PD1334   PD        0.439281    0.767500    0.336455     0.005394
PD1335   PD        0.474598    0.731027    0.335070     0.005394
PD1336   PD        0.473622    0.765458    0.299297     0.005394
PD1337   PD        0.509510    0.731854    0.299773     0.005394
PD1338   PD        0.508156    0.766288    0.332442     0.005394
PD1339   PD        0.542258    0.732337    0.334411     0.005394
PD1340   PD        0.542510    0.767679    0.300158     0.005394
PD1341   PD        0.575834    0.730452    0.300314     0.005394
PD1342   PD        0.576541    0.765650    0.334819     0.005394
PD1343   PD        0.611277    0.731871    0.333907     0.005394
NI1344   NI        0.623048    0.775093    0.317321     0.004307
NI1345   NI        0.639234    0.744250    0.284499     0.004307
PD1346   PD        0.644269    0.765244    0.335252     0.005394
NI1347   NI        0.679676    0.728612    0.333675     0.004307
NI1348   NI        0.680889    0.747563    0.306860     0.004307
NI1349   NI        0.720302    0.735562    0.271955     0.004307
NI1350   NI        0.265918    0.792715    0.335986     0.004307
NI1351   NI        0.312075    0.824598    0.298097     0.004307
NI1352   NI        0.298688    0.829431    0.336481     0.004307
PD1353   PD        0.333908    0.796245    0.336297     0.005394
NI1354   NI        0.344102    0.859038    0.290722     0.004307
NI1355   NI        0.370519    0.787754    0.307875     0.004307
NI1356   NI        0.368832    0.827823    0.340511     0.004307
PD1357   PD        0.406788    0.799143    0.336828     0.005394
NI1358   NI        0.422098    0.830066    0.304879     0.004307
NI1359   NI        0.427677    0.825023    0.312392     0.004307
NI1360   NI        0.438644    0.833125    0.337632     0.004307
PD1361   PD        0.473538    0.798312    0.337179     0.005394
NI1362   NI        0.473168    0.831986    0.301136     0.004307
PD1363   PD        0.507278    0.799589    0.297969     0.005394
PD1364   PD        0.508279    0.834492    0.333077     0.005394
PD1365   PD        0.543871    0.801304    0.335015     0.005394
NI1366   NI        0.543154    0.832831    0.299463     0.004307
NI1367   NI        0.559405    0.807471    0.280999     0.004307
NI1368   NI        0.577456    0.833496    0.334150     0.004307
NI1369   NI        0.611518    0.798869    0.335101     0.004307
NI1370   NI        0.246132    0.072674    0.338314     0.004307
NI1371   NI        0.301026    0.054841    0.432462     0.004307
NI1372   NI        0.338574    0.093517    0.369199     0.004307
NI1373   NI        0.371937    0.062777    0.386886     0.004307
NI1374   NI        0.403379    0.035258    0.409914     0.004307
PD1375   PD        0.403345    0.068328    0.374722     0.005394
NI1376   NI        0.403973    0.001756    0.375250     0.004307
PD1377   PD        0.437121    0.070133    0.409316     0.005394
NI1378   NI        0.506425    0.003043    0.409473     0.004307
PD1379   PD        0.472019    0.072108    0.375490     0.005394
NI1380   NI        0.529433    0.044887    0.402667     0.004307
NI1381   NI        0.540665    0.074895    0.373294     0.004307
NI1382   NI        0.583824    0.063291    0.429897     0.004307
NI1383   NI        0.623058    0.055857    0.381198     0.004307
NI1384   NI        0.162947    0.134457    0.405352     0.004307
NI1385   NI        0.175952    0.082004    0.437093     0.004307
NI1386   NI        0.197239    0.134539    0.372694     0.004307
NI1387   NI        0.231116    0.101484    0.373712     0.004307
NI1388   NI        0.220613    0.124112    0.430620     0.004307
NI1389   NI        0.266914    0.103526    0.408207     0.004307
PD1390   PD        0.265895    0.139243    0.372658     0.005394
NI1391   NI        0.289033    0.092151    0.350931     0.004307
PD1392   PD        0.298787    0.135668    0.408706     0.005394
NI1393   NI        0.322740    0.090985    0.384172     0.004307
PD1394   PD        0.335592    0.136710    0.373372     0.005394
PD1395   PD        0.368418    0.102170    0.374181     0.005394
PD1396   PD        0.366828    0.136929    0.409595     0.005394
PD1397   PD        0.402850    0.103245    0.408840     0.005394
PD1398   PD        0.400827    0.137389    0.374827     0.005394
NI1399   NI        0.408422    0.073754    0.369696     0.004307
PD1400   PD        0.435895    0.138762    0.409050     0.005394
PD1401   PD        0.471129    0.103864    0.409788     0.005394
PD1402   PD        0.470554    0.139405    0.375435     0.005394
NI1403   NI        0.495989    0.106875    0.356953     0.004307
PD1404   PD        0.504316    0.140597    0.410684     0.005394
PD1405   PD        0.539811    0.105906    0.409790     0.005394
PD1406   PD        0.539368    0.150614    0.379913     0.005394
NI1407   NI        0.582325    0.085624    0.347488     0.004307
PD1408   PD        0.572488    0.144647    0.409532     0.005394
PD1409   PD        0.607618    0.109935    0.408011     0.005394
PD1410   PD        0.606834    0.143836    0.374882     0.005394
NI1411   NI        0.642816    0.114545    0.374534     0.004307
NI1412   NI        0.654426    0.115456    0.419345     0.004307
NI1413   NI        0.677518    0.110915    0.407477     0.004307
NI1414   NI        0.692198    0.139148    0.363279     0.004307
NI1415   NI        0.710163    0.145126    0.408225     0.004307
NI1416   NI        0.093973    0.203456    0.406822     0.004307
NI1417   NI        0.158092    0.162897    0.402007     0.004307
NI1418   NI        0.127510    0.206225    0.371976     0.004307
NI1419   NI        0.144582    0.171954    0.357711     0.004307
PD1420   PD        0.162030    0.205367    0.406695     0.005394
PD1421   PD        0.194920    0.170626    0.406684     0.005394
NI1422   NI        0.217399    0.213165    0.363532     0.004307
NI1423   NI        0.219174    0.190184    0.379757     0.004307
PD1424   PD        0.230067    0.203749    0.408164     0.005394
PD1425   PD        0.262961    0.168199    0.408707     0.005394
PD1426   PD        0.264370    0.203840    0.374353     0.005394
NI1427   NI        0.299199    0.175302    0.358742     0.004307
PD1428   PD        0.297259    0.205769    0.409483     0.005394
PD1429   PD        0.332823    0.171637    0.408966     0.005394
PD1430   PD        0.331447    0.205627    0.375154     0.005394
PD1431   PD        0.367365    0.172482    0.374021     0.005394
PD1432   PD        0.367052    0.206678    0.411066     0.005394
PD1433   PD        0.401106    0.171663    0.407869     0.005394
PD1434   PD        0.407532    0.227981    0.376773     0.005394
NI1435   NI        0.428261    0.156174    0.351363     0.004307
PD1436   PD        0.436177    0.207625    0.410314     0.005394
PD1437   PD        0.470457    0.172833    0.409502     0.005394
PD1438   PD        0.469847    0.207839    0.376411     0.005394
PD1439   PD        0.502532    0.173840    0.376111     0.005394
PD1440   PD        0.503322    0.208120    0.409761     0.005394
NI1441   NI        0.540201    0.178514    0.389385     0.004307
PD1442   PD        0.529412    0.199162    0.381663     0.005394
PD1443   PD        0.572353    0.178572    0.374332     0.005394
NI1444   NI        0.574790    0.187252    0.421800     0.004307
PD1445   PD        0.607289    0.177462    0.409485     0.005394
NI1446   NI        0.637517    0.195676    0.375487     0.004307
NI1447   NI        0.647692    0.159489    0.394957     0.004307
NI1448   NI        0.647640    0.200671    0.419565     0.004307
NI1449   NI        0.690911    0.178435    0.403738     0.004307
NI1450   NI        0.676235    0.207021    0.376031     0.004307
NI1451   NI        0.722910    0.175266    0.362426     0.004307
NI1452   NI        0.733625    0.201995    0.398215     0.004307
NI1453   NI        0.752606    0.161679    0.418389     0.004307
NI1454   NI        0.753744    0.206033    0.357547     0.004307
NI1455   NI        0.797692    0.180294    0.402632     0.004307
NI1456   NI        0.054704    0.286789    0.385840     0.004307
NI1457   NI        0.093304    0.241813    0.373849     0.004307
NI1458   NI        0.092064    0.273133    0.405426     0.004307
PD1459   PD        0.125839    0.237597    0.406004     0.005394
NI1460   NI        0.118038    0.289511    0.332711     0.004307
PD1461   PD        0.161805    0.240307    0.372605     0.005394
NI1462   NI        0.145549    0.289472    0.396864     0.004307
PD1463   PD        0.194903    0.238108    0.407424     0.005394
NI1464   NI        0.178648    0.268822    0.358801     0.004307
PD1465   PD        0.228758    0.238266    0.373555     0.005394
PD1466   PD        0.229210    0.271948    0.408835     0.005394
PD1467   PD        0.263039    0.238267    0.407426     0.005394
PD1468   PD        0.262975    0.273964    0.375040     0.005394
PD1469   PD        0.284327    0.238334    0.351122     0.005394
PD1470   PD        0.293372    0.293952    0.397022     0.005394
PD1471   PD        0.332477    0.238885    0.410914     0.005394
PD1472   PD        0.331545    0.274599    0.375391     0.005394
PD1473   PD        0.364664    0.240425    0.375292     0.005394
PD1474   PD        0.366381    0.275706    0.411093     0.005394
PD1475   PD        0.415513    0.233737    0.402077     0.005394
PD1476   PD        0.399275    0.274759    0.376407     0.005394
PD1477   PD        0.434123    0.249328    0.360914     0.005394
PD1478   PD        0.435423    0.286665    0.391189     0.005394
PD1479   PD        0.465301    0.248335    0.394802     0.005394
PD1480   PD        0.469168    0.281717    0.360386     0.005394
PD1481   PD        0.500226    0.239310    0.360019     0.005394
PD1482   PD        0.518312    0.288437    0.387395     0.005394
PD1483   PD        0.533740    0.243438    0.397714     0.005394
PD1484   PD        0.535821    0.277833    0.377109     0.005394
PD1485   PD        0.581304    0.245179    0.366733     0.005394
PD1486   PD        0.570599    0.273427    0.406727     0.005394
PD1487   PD        0.636334    0.248346    0.374635     0.005394
PD1488   PD        0.616094    0.277717    0.366381     0.005394
PD1489   PD        0.650297    0.242456    0.366148     0.005394
PD1490   PD        0.654285    0.276130    0.398508     0.005394
NI1491   NI        0.687151    0.242355    0.398788     0.004307
NI1492   NI        0.695117    0.254699    0.380584     0.004307
NI1493   NI        0.732160    0.247815    0.381749     0.004307
NI1494   NI        0.710620    0.278248    0.412744     0.004307
NI1495   NI        0.743004    0.244150    0.408786     0.004307
NI1496   NI        0.736847    0.282623    0.379629     0.004307
NI1497   NI        0.775342    0.243919    0.372418     0.004307
NI1498   NI        0.774305    0.284733    0.418954     0.004307
NI1499   NI        0.819734    0.284530    0.369600     0.004307
NI1500   NI        0.059802    0.311927    0.406231     0.004307
NI1501   NI        0.045313    0.322202    0.353715     0.004307
NI1502   NI        0.094196    0.311612    0.374640     0.004307
PD1503   PD        0.094628    0.345379    0.410359     0.005394
PD1504   PD        0.127128    0.308684    0.407365     0.005394
PD1505   PD        0.129936    0.345439    0.376563     0.005394
PD1506   PD        0.163144    0.310381    0.376129     0.005394
PD1507   PD        0.163003    0.340791    0.409171     0.005394
PD1508   PD        0.195695    0.307539    0.409589     0.005394
PD1509   PD        0.186930    0.334072    0.369454     0.005394
PD1510   PD        0.230053    0.307540    0.376276     0.005394
PD1511   PD        0.231934    0.341652    0.410544     0.005394
PD1512   PD        0.275419    0.332274    0.392345     0.005394
PD1513   PD        0.250637    0.357022    0.362136     0.005394
PD1514   PD        0.280071    0.321629    0.368368     0.005394
PD1515   PD        0.296310    0.342667    0.411136     0.005394
PD1516   PD        0.331378    0.309320    0.413828     0.005394
PD1517   PD        0.331494    0.343700    0.378735     0.005394
PD1518   PD        0.367123    0.309042    0.378707     0.005394
PD1519   PD        0.367270    0.343589    0.411199     0.005394
PD1520   PD        0.397209    0.308833    0.408629     0.005394
PD1521   PD        0.400162    0.345209    0.375544     0.005394
PD1522   PD        0.434466    0.308678    0.374397     0.005394
PD1523   PD        0.439374    0.341764    0.409381     0.005394
PD1524   PD        0.474419    0.310342    0.395438     0.005394
PD1525   PD        0.471123    0.342675    0.374198     0.005394
PD1526   PD        0.507644    0.311522    0.361785     0.005394
PD1527   PD        0.499309    0.345701    0.410248     0.005394
PD1528   PD        0.541220    0.306722    0.414045     0.005394
PD1529   PD        0.545653    0.343229    0.365386     0.005394
PD1530   PD        0.578211    0.308505    0.381639     0.005394
PD1531   PD        0.587354    0.335959    0.401928     0.005394
PD1532   PD        0.613555    0.297059    0.410741     0.005394
PD1533   PD        0.619972    0.367959    0.382761     0.005394
PD1534   PD        0.645626    0.307734    0.369725     0.005394
PD1535   PD        0.648599    0.344148    0.400894     0.005394
PD1536   PD        0.680373    0.312753    0.404094     0.005394
PD1537   PD        0.661233    0.329568    0.376045     0.005394
NI1538   NI        0.703277    0.313917    0.357103     0.004307
PD1539   PD        0.712532    0.341192    0.421877     0.005394
NI1540   NI        0.755109    0.322307    0.402078     0.004307
NI1541   NI        0.771687    0.355116    0.370999     0.004307
NI1542   NI        0.796402    0.297420    0.379156     0.004307
NI1543   NI        0.789746    0.345332    0.415193     0.004307
NI1544   NI        0.813906    0.305645    0.421823     0.004307
NI1545   NI        0.810824    0.341384    0.393230     0.004307
NI1546   NI        0.029706    0.416188    0.411422     0.004307
NI1547   NI        0.062419    0.379960    0.409151     0.004307
NI1548   NI        0.066354    0.417175    0.377148     0.004307
NI1549   NI        0.073221    0.390467    0.378090     0.004307
PD1550   PD        0.096042    0.414235    0.411011     0.005394
PD1551   PD        0.131528    0.381481    0.411400     0.005394
NI1552   NI        0.118994    0.411791    0.361757     0.004307
PD1553   PD        0.161872    0.392380    0.368068     0.005394
PD1554   PD        0.156616    0.397892    0.415399     0.005394
PD1555   PD        0.197180    0.361914    0.403055     0.005394
PD1556   PD        0.186225    0.422671    0.361480     0.005394
PD1557   PD        0.222174    0.392931    0.371438     0.005394
PD1558   PD        0.226542    0.422984    0.407810     0.005394
PD1559   PD        0.264244    0.376369    0.409332     0.005394
PD1560   PD        0.271606    0.426148    0.364958     0.005394
PD1561   PD        0.307170    0.369225    0.359846     0.005394
PD1562   PD        0.302787    0.412214    0.399443     0.005394
PD1563   PD        0.332709    0.378214    0.410989     0.005394
PD1564   PD        0.330312    0.413277    0.378120     0.005394
PD1565   PD        0.363972    0.378663    0.376712     0.005394
PD1566   PD        0.368225    0.411873    0.407675     0.005394
PD1567   PD        0.402338    0.377033    0.409814     0.005394
PD1568   PD        0.378704    0.426916    0.379925     0.005394
PD1569   PD        0.442166    0.372137    0.384193     0.005394
PD1570   PD        0.437678    0.409877    0.410788     0.005394
PD1571   PD        0.472535    0.374260    0.409816     0.005394
PD1572   PD        0.474831    0.407293    0.376133     0.005394
PD1573   PD        0.499652    0.380765    0.374473     0.005394
PD1574   PD        0.505816    0.428868    0.402773     0.005394
PD1575   PD        0.542669    0.380258    0.396524     0.005394
PD1576   PD        0.540738    0.407815    0.362048     0.005394
PD1577   PD        0.578153    0.377551    0.364786     0.005394
PD1578   PD        0.574076    0.416704    0.394096     0.005394
PD1579   PD        0.611059    0.396610    0.418541     0.005394
PD1580   PD        0.612766    0.412360    0.367860     0.005394
PD1581   PD        0.646378    0.373615    0.386770     0.005394
PD1582   PD        0.644232    0.419855    0.417108     0.005394
PD1583   PD        0.685993    0.401281    0.400949     0.005394
PD1584   PD        0.668199    0.411894    0.359475     0.005394
NI1585   NI        0.734289    0.371235    0.377607     0.004307
PD1586   PD        0.697909    0.437836    0.413030     0.005394
NI1587   NI        0.765009    0.380413    0.413489     0.004307
NI1588   NI        0.750607    0.417771    0.347573     0.004307
NI1589   NI        0.784371    0.406201    0.379616     0.004307
NI1590   NI        0.797605    0.411930    0.431223     0.004307
NI1591   NI        0.813998    0.385182    0.405406     0.004307
NI1592   NI        0.804245    0.419200    0.371838     0.004307
NI1593   NI        0.827238    0.430051    0.397735     0.004307
NI1594   NI        0.018996    0.450009    0.390935     0.004307
NI1595   NI        0.024577    0.456316    0.397151     0.004307
NI1596   NI        0.063422    0.449269    0.407953     0.004307
NI1597   NI        0.042696    0.472889    0.354318     0.004307
PD1598   PD        0.100461    0.449461    0.379173     0.005394
NI1599   NI        0.081321    0.473393    0.385786     0.004307
NI1600   NI        0.106343    0.462727    0.405303     0.004307
NI1601   NI        0.120220    0.491706    0.384072     0.004307
NI1602   NI        0.157512    0.441497    0.363596     0.004307
PD1603   PD        0.172027    0.480040    0.410003     0.005394
PD1604   PD        0.199814    0.441294    0.405350     0.005394
PD1605   PD        0.175961    0.485027    0.362143     0.005394
PD1606   PD        0.215385    0.461336    0.360950     0.005394
PD1607   PD        0.230193    0.479552    0.417653     0.005394
PD1608   PD        0.265229    0.445431    0.410447     0.005394
PD1609   PD        0.273052    0.485351    0.369197     0.005394
PD1610   PD        0.298105    0.447575    0.380776     0.005394
PD1611   PD        0.298515    0.483012    0.411659     0.005394
PD1612   PD        0.332916    0.445342    0.407369     0.005394
PD1613   PD        0.333296    0.482257    0.377707     0.005394
PD1614   PD        0.364029    0.447826    0.370636     0.005394
PD1615   PD        0.375498    0.498605    0.409142     0.005394
PD1616   PD        0.398762    0.450760    0.406162     0.005394
PD1617   PD        0.398941    0.481426    0.373161     0.005394
PD1618   PD        0.429601    0.459684    0.366875     0.005394
PD1619   PD        0.430926    0.488085    0.405316     0.005394
PD1620   PD        0.480552    0.442574    0.409085     0.005394
PD1621   PD        0.462020    0.493948    0.369212     0.005394
PD1622   PD        0.511404    0.440525    0.373451     0.005394
PD1623   PD        0.487837    0.490264    0.410765     0.005394
PD1624   PD        0.537293    0.448417    0.412488     0.005394
PD1625   PD        0.544899    0.491762    0.365980     0.005394
PD1626   PD        0.580114    0.444851    0.369759     0.005394
PD1627   PD        0.581821    0.485334    0.395695     0.005394
PD1628   PD        0.619541    0.453573    0.395415     0.005394
PD1629   PD        0.612803    0.489319    0.362608     0.005394
PD1630   PD        0.647275    0.455323    0.361732     0.005394
PD1631   PD        0.656608    0.510839    0.410876     0.005394
PD1632   PD        0.683390    0.447881    0.393031     0.005394
PD1633   PD        0.671501    0.493554    0.382856     0.005394
NI1634   NI        0.724065    0.440215    0.372103     0.004307
PD1635   PD        0.710836    0.487629    0.401248     0.005394
PD1636   PD        0.743000    0.453294    0.406253     0.005394
NI1637   NI        0.741882    0.488300    0.374462     0.004307
NI1638   NI        0.804852    0.454599    0.364649     0.004307
PD1639   PD        0.774994    0.488959    0.409531     0.005394
NI1640   NI        0.811604    0.430582    0.412989     0.004307
NI1641   NI        0.811718    0.485212    0.377631     0.004307
NI1642   NI        0.883491    0.452512    0.346262     0.004307
NI1643   NI        0.842395    0.483765    0.410394     0.004307
NI1644   NI        0.061120    0.537153    0.403508     0.004307
NI1645   NI        0.053051    0.557437    0.375440     0.004307
PD1646   PD        0.089319    0.523675    0.372302     0.005394
NI1647   NI        0.097941    0.570234    0.416107     0.004307
NI1648   NI        0.117928    0.527516    0.408672     0.004307
PD1649   PD        0.120832    0.561358    0.373018     0.005394
PD1650   PD        0.151760    0.525165    0.371276     0.005394
PD1651   PD        0.154705    0.559694    0.407141     0.005394
PD1652   PD        0.198008    0.526712    0.410017     0.005394
PD1653   PD        0.203161    0.548363    0.368941     0.005394
PD1654   PD        0.220196    0.525884    0.369844     0.005394
PD1655   PD        0.235347    0.553855    0.407341     0.005394
PD1656   PD        0.272299    0.521833    0.398408     0.005394
PD1657   PD        0.247635    0.562562    0.385016     0.005394
PD1658   PD        0.303487    0.518690    0.380617     0.005394
PD1659   PD        0.295393    0.550585    0.384287     0.005394
PD1660   PD        0.322241    0.518118    0.403764     0.005394
PD1661   PD        0.328539    0.571489    0.359471     0.005394
PD1662   PD        0.373594    0.521738    0.367938     0.005394
PD1663   PD        0.374932    0.552665    0.406172     0.005394
PD1664   PD        0.389222    0.517796    0.412930     0.005394
PD1665   PD        0.408098    0.554680    0.368198     0.005394
PD1666   PD        0.443890    0.513066    0.365864     0.005394
PD1667   PD        0.444270    0.545626    0.401572     0.005394
PD1668   PD        0.473420    0.510698    0.401921     0.005394
PD1669   PD        0.475151    0.559444    0.366274     0.005394
PD1670   PD        0.505067    0.512666    0.371005     0.005394
PD1671   PD        0.509569    0.546038    0.404104     0.005394
PD1672   PD        0.546487    0.516791    0.397885     0.005394
PD1673   PD        0.540099    0.544510    0.365191     0.005394
PD1674   PD        0.578772    0.522559    0.363617     0.005394
PD1675   PD        0.558123    0.559380    0.416171     0.005394
PD1676   PD        0.613011    0.522440    0.397418     0.005394
PD1677   PD        0.616400    0.570503    0.381486     0.005394
PD1678   PD        0.646623    0.522755    0.364503     0.005394
PD1679   PD        0.652296    0.579159    0.411898     0.005394
PD1680   PD        0.696317    0.513667    0.441455     0.005394
PD1681   PD        0.680021    0.559252    0.368367     0.005394
PD1682   PD        0.709250    0.521701    0.368937     0.005394
PD1683   PD        0.717226    0.557385    0.401743     0.005394
NI1684   NI        0.755232    0.527742    0.413373     0.004307
NI1685   NI        0.723223    0.556219    0.361821     0.004307
NI1686   NI        0.779671    0.521585    0.371856     0.004307
NI1687   NI        0.802398    0.525940    0.405169     0.004307
NI1688   NI        0.812733    0.521863    0.410847     0.004307
NI1689   NI        0.812559    0.554164    0.374456     0.004307
NI1690   NI        0.054184    0.592806    0.410276     0.004307
NI1691   NI        0.061345    0.617059    0.369481     0.004307
PD1692   PD        0.085155    0.593901    0.375304     0.005394
PD1693   PD        0.087266    0.628680    0.408980     0.005394
PD1694   PD        0.120827    0.595133    0.408999     0.005394
PD1695   PD        0.120285    0.627700    0.374388     0.005394
PD1696   PD        0.155021    0.595325    0.372635     0.005394
PD1697   PD        0.155063    0.628277    0.407009     0.005394
PD1698   PD        0.188167    0.595570    0.406528     0.005394
PD1699   PD        0.187497    0.629140    0.372990     0.005394
PD1700   PD        0.222025    0.595319    0.372513     0.005394
PD1701   PD        0.222540    0.628017    0.408357     0.005394
PD1702   PD        0.242875    0.599828    0.415513     0.005394
PD1703   PD        0.246208    0.629637    0.354393     0.005394
PD1704   PD        0.303638    0.592372    0.365451     0.005394
PD1705   PD        0.305673    0.620045    0.402435     0.005394
PD1706   PD        0.325474    0.587392    0.401052     0.005394
PD1707   PD        0.336963    0.619116    0.365719     0.005394
PD1708   PD        0.374104    0.584698    0.373663     0.005394
PD1709   PD        0.364393    0.618960    0.405013     0.005394
PD1710   PD        0.388039    0.604785    0.417107     0.005394
PD1711   PD        0.395032    0.627433    0.376518     0.005394
PD1712   PD        0.432396    0.596801    0.366642     0.005394
PD1713   PD        0.436202    0.615077    0.416442     0.005394
PD1714   PD        0.474762    0.586270    0.418147     0.005394
PD1715   PD        0.475884    0.613959    0.364710     0.005394
PD1716   PD        0.513226    0.604338    0.395247     0.005394
PD1717   PD        0.510207    0.613295    0.398998     0.005394
PD1718   PD        0.543746    0.576317    0.411955     0.005394
PD1719   PD        0.541883    0.627787    0.367690     0.005394
PD1720   PD        0.554336    0.584178    0.379195     0.005394
PD1721   PD        0.578016    0.623640    0.400634     0.005394
PD1722   PD        0.589229    0.591021    0.413434     0.005394
PD1723   PD        0.612802    0.628595    0.366876     0.005394
PD1724   PD        0.646103    0.591991    0.366734     0.005394
NI1725   NI        0.640383    0.625566    0.425084     0.004307
PD1726   PD        0.678294    0.583349    0.410107     0.005394
PD1727   PD        0.682200    0.627615    0.367612     0.005394
PD1728   PD        0.711801    0.593146    0.371861     0.005394
PD1729   PD        0.711674    0.625737    0.406124     0.005394
PD1730   PD        0.746578    0.589216    0.406767     0.005394
PD1731   PD        0.745188    0.626382    0.373451     0.005394
NI1732   NI        0.781280    0.589738    0.373718     0.004307
NI1733   NI        0.780515    0.623927    0.408312     0.004307
NI1734   NI        0.826712    0.618996    0.419285     0.004307
NI1735   NI        0.814667    0.624467    0.373849     0.004307
NI1736   NI        0.108219    0.664812    0.352312     0.004307
NI1737   NI        0.089009    0.699451    0.410061     0.004307
PD1738   PD        0.119331    0.662068    0.408450     0.005394
NI1739   NI        0.120881    0.697052    0.373716     0.004307
NI1740   NI        0.153217    0.646557    0.378256     0.004307
NI1741   NI        0.176340    0.701710    0.384775     0.004307
PD1742   PD        0.188975    0.662646    0.407778     0.005394
NI1743   NI        0.199654    0.691516    0.369598     0.004307
NI1744   NI        0.235735    0.676753    0.371551     0.004307
NI1745   NI        0.207144    0.719119    0.412363     0.004307
PD1746   PD        0.276437    0.674517    0.397771     0.005394
NI1747   NI        0.250326    0.697043    0.366085     0.004307
PD1748   PD        0.289669    0.644856    0.364540     0.005394
PD1749   PD        0.302070    0.683738    0.400194     0.005394
PD1750   PD        0.322682    0.665538    0.399627     0.005394
PD1751   PD        0.336429    0.699202    0.369272     0.005394
PD1752   PD        0.371347    0.663330    0.371366     0.005394
PD1753   PD        0.373321    0.696409    0.405136     0.005394
PD1754   PD        0.403381    0.647342    0.404782     0.005394
PD1755   PD        0.405351    0.699389    0.369430     0.005394
PD1756   PD        0.426391    0.664076    0.369512     0.005394
PD1757   PD        0.439621    0.697048    0.403862     0.005394
PD1758   PD        0.481572    0.661092    0.418724     0.005394
PD1759   PD        0.471077    0.684510    0.372403     0.005394
PD1760   PD        0.490889    0.652012    0.382623     0.005394
PD1761   PD        0.508069    0.697689    0.401701     0.005394
PD1762   PD        0.541543    0.681428    0.388990     0.005394
PD1763   PD        0.541527    0.695773    0.368800     0.005394
PD1764   PD        0.578042    0.662122    0.367715     0.005394
PD1765   PD        0.576938    0.695705    0.401010     0.005394
NI1766   NI        0.616407    0.647844    0.394899     0.004307
NI1767   NI        0.623256    0.689773    0.384112     0.004307
PD1768   PD        0.645249    0.660232    0.367568     0.005394
NI1769   NI        0.651585    0.703253    0.419708     0.004307
NI1770   NI        0.656863    0.660016    0.398625     0.004307
PD1771   PD        0.678182    0.696785    0.370901     0.005394
NI1772   NI        0.719704    0.674440    0.384326     0.004307
NI1773   NI        0.725831    0.698751    0.426290     0.004307
NI1774   NI        0.759053    0.645702    0.390023     0.004307
NI1775   NI        0.747311    0.694164    0.373433     0.004307
NI1776   NI        0.779377    0.656527    0.372651     0.004307
NI1777   NI        0.795876    0.678430    0.418240     0.004307
NI1778   NI        0.126714    0.731387    0.406434     0.004307
NI1779   NI        0.157387    0.730216    0.372593     0.004307
NI1780   NI        0.153708    0.774068    0.384647     0.004307
NI1781   NI        0.199578    0.729183    0.405073     0.004307
NI1782   NI        0.197782    0.759269    0.370742     0.004307
NI1783   NI        0.236588    0.723985    0.371655     0.004307
NI1784   NI        0.231514    0.760383    0.403093     0.004307
PD1785   PD        0.266789    0.723055    0.404140     0.005394
PD1786   PD        0.265938    0.761856    0.369681     0.005394
NI1787   NI        0.301044    0.732266    0.367351     0.004307
PD1788   PD        0.299281    0.759780    0.404108     0.005394
PD1789   PD        0.332432    0.721534    0.402252     0.005394
PD1790   PD        0.334935    0.762689    0.372924     0.005394
PD1791   PD        0.371172    0.730917    0.371018     0.005394
PD1792   PD        0.372750    0.765222    0.403388     0.005394
PD1793   PD        0.406171    0.732030    0.402754     0.005394
PD1794   PD        0.406386    0.766162    0.368948     0.005394
PD1795   PD        0.440314    0.733760    0.367927     0.005394
PD1796   PD        0.439695    0.765783    0.404324     0.005394
PD1797   PD        0.474944    0.730509    0.401654     0.005394
PD1798   PD        0.474470    0.763105    0.369633     0.005394
PD1799   PD        0.508936    0.732978    0.368551     0.005394
PD1800   PD        0.507900    0.767540    0.403571     0.005394
PD1801   PD        0.542959    0.730032    0.403916     0.005394
PD1802   PD        0.542630    0.766113    0.368326     0.005394
NI1803   NI        0.588280    0.740854    0.390555     0.004307
PD1804   PD        0.576473    0.764319    0.401621     0.005394
PD1805   PD        0.610172    0.728906    0.402276     0.005394
NI1806   NI        0.601733    0.783198    0.381236     0.004307
PD1807   PD        0.643589    0.729717    0.368138     0.005394
NI1808   NI        0.644706    0.747362    0.408160     0.004307
NI1809   NI        0.678424    0.731347    0.404877     0.004307
NI1810   NI        0.666158    0.766612    0.373866     0.004307
NI1811   NI        0.712508    0.727846    0.368384     0.004307
NI1812   NI        0.724052    0.741152    0.393456     0.004307
NI1813   NI        0.749843    0.726538    0.398119     0.004307
NI1814   NI        0.197289    0.796861    0.406275     0.004307
NI1815   NI        0.231566    0.796345    0.370494     0.004307
NI1816   NI        0.265721    0.795483    0.405800     0.004307
NI1817   NI        0.253144    0.824717    0.338579     0.004307
NI1818   NI        0.318535    0.796045    0.376963     0.004307
NI1819   NI        0.300416    0.827800    0.405323     0.004307
PD1820   PD        0.336750    0.798353    0.404294     0.005394
NI1821   NI        0.335539    0.830928    0.371957     0.004307
NI1822   NI        0.368436    0.795363    0.369953     0.004307
NI1823   NI        0.369053    0.840453    0.369958     0.004307
PD1824   PD        0.405872    0.797744    0.404889     0.005394
NI1825   NI        0.404131    0.831687    0.370123     0.004307
NI1826   NI        0.436101    0.794113    0.378922     0.004307
NI1827   NI        0.441724    0.833719    0.404100     0.004307
PD1828   PD        0.475636    0.799064    0.402810     0.005394
PD1829   PD        0.475981    0.833996    0.368850     0.005394
PD1830   PD        0.507859    0.801426    0.368019     0.005394
PD1831   PD        0.508258    0.833973    0.404771     0.005394
PD1832   PD        0.542309    0.797678    0.403901     0.005394
NI1833   NI        0.527240    0.820514    0.375331     0.004307
PD1834   PD        0.575505    0.797874    0.370149     0.005394
NI1835   NI        0.577705    0.833288    0.405230     0.004307
PD1836   PD        0.611646    0.798291    0.401581     0.005394
NI1837   NI        0.636292    0.808229    0.392974     0.004307
NI1838   NI        0.645104    0.799948    0.370473     0.004307
NI1839   NI        0.656239    0.811277    0.390627     0.004307
NI1840   NI        0.378554    0.904258    0.416452     0.004307
NI1841   NI        0.440323    0.866199    0.371097     0.004307
NI1842   NI        0.472579    0.863051    0.405120     0.004307
NI1843   NI        0.240495    0.066007    0.446385     0.004307
PD1844   PD        0.299590    0.068672    0.475867     0.005394
PD1845   PD        0.334849    0.067838    0.443667     0.005394
NI1846   NI        0.368685    0.035300    0.444093     0.004307
PD1847   PD        0.367896    0.068217    0.477757     0.005394
NI1848   NI        0.402708    0.037444    0.478121     0.004307
PD1849   PD        0.401998    0.069914    0.443198     0.005394
NI1850   NI        0.437071    0.036676    0.440847     0.004307
NI1851   NI        0.441703    0.088440    0.476021     0.004307
NI1852   NI        0.471545    0.054173    0.468913     0.004307
PD1853   PD        0.472209    0.069835    0.444088     0.005394
NI1854   NI        0.505955    0.036230    0.443024     0.004307
PD1855   PD        0.504482    0.071031    0.478078     0.005394
PD1856   PD        0.539388    0.070352    0.443386     0.005394
NI1857   NI        0.575840    0.073400    0.476343     0.004307
NI1858   NI        0.592226    0.068840    0.424368     0.004307
NI1859   NI        0.162592    0.135160    0.475376     0.004307
NI1860   NI        0.194929    0.101243    0.475330     0.004307
NI1861   NI        0.203248    0.126631    0.458808     0.004307
NI1862   NI        0.232051    0.089194    0.466226     0.004307
PD1863   PD        0.227498    0.135569    0.476379     0.005394
NI1864   NI        0.269640    0.102187    0.496188     0.004307
NI1865   NI        0.245694    0.125401    0.420365     0.004307
NI1866   NI        0.276208    0.091705    0.452969     0.004307
PD1867   PD        0.297420    0.137433    0.476834     0.005394
PD1868   PD        0.332859    0.102556    0.478887     0.005394
NI1869   NI        0.325301    0.148186    0.433071     0.004307
PD1870   PD        0.367427    0.102499    0.443769     0.005394
NI1871   NI        0.343740    0.138014    0.467374     0.004307
PD1872   PD        0.402681    0.102226    0.478971     0.005394
PD1873   PD        0.400035    0.136503    0.444205     0.005394
PD1874   PD        0.437416    0.102958    0.443529     0.005394
PD1875   PD        0.434550    0.138497    0.477975     0.005394
PD1876   PD        0.469900    0.103452    0.478378     0.005394
PD1877   PD        0.468541    0.138784    0.443189     0.005394
PD1878   PD        0.504804    0.105836    0.442498     0.005394
PD1879   PD        0.503307    0.138460    0.478117     0.005394
PD1880   PD        0.538994    0.102674    0.478058     0.005394
NI1881   NI        0.542210    0.152721    0.436377     0.004307
PD1882   PD        0.573238    0.108172    0.443601     0.005394
PD1883   PD        0.572847    0.141607    0.478462     0.005394
NI1884   NI        0.627515    0.106096    0.488717     0.004307
NI1885   NI        0.617726    0.130038    0.461188     0.004307
NI1886   NI        0.642404    0.109854    0.440637     0.004307
PD1887   PD        0.641609    0.142064    0.477293     0.005394
NI1888   NI        0.675836    0.108437    0.476971     0.004307
NI1889   NI        0.675764    0.145417    0.442241     0.004307
NI1890   NI        0.710747    0.142969    0.478269     0.004307
NI1891   NI        0.074293    0.210248    0.464825     0.004307
NI1892   NI        0.098144    0.173868    0.482816     0.004307
NI1893   NI        0.100170    0.181498    0.433787     0.004307
NI1894   NI        0.148037    0.174054    0.416650     0.004307
PD1895   PD        0.160801    0.203961    0.475311     0.005394
PD1896   PD        0.194247    0.168677    0.475277     0.005394
PD1897   PD        0.194828    0.204581    0.441317     0.005394
PD1898   PD        0.228897    0.169876    0.442964     0.005394
PD1899   PD        0.227641    0.205548    0.475903     0.005394
PD1900   PD        0.262576    0.167730    0.477338     0.005394
PD1901   PD        0.262572    0.202362    0.442817     0.005394
PD1902   PD        0.297739    0.170116    0.443525     0.005394
PD1903   PD        0.297615    0.204897    0.476663     0.005394
PD1904   PD        0.331785    0.170480    0.477194     0.005394
PD1905   PD        0.332670    0.204582    0.443190     0.005394
PD1906   PD        0.367512    0.170544    0.443162     0.005394
PD1907   PD        0.364462    0.204187    0.477059     0.005394
PD1908   PD        0.400200    0.170627    0.478312     0.005394
PD1909   PD        0.400770    0.206365    0.443109     0.005394
PD1910   PD        0.435813    0.172085    0.444635     0.005394
PD1911   PD        0.442224    0.213615    0.468920     0.005394
PD1912   PD        0.469631    0.173556    0.478880     0.005394
PD1913   PD        0.471541    0.231408    0.434548     0.005394
PD1914   PD        0.510223    0.187386    0.424975     0.005394
PD1915   PD        0.512454    0.211570    0.489851     0.005394
PD1916   PD        0.537811    0.173418    0.478975     0.005394
PD1917   PD        0.551655    0.210142    0.422738     0.005394
PD1918   PD        0.572512    0.175969    0.443942     0.005394
PD1919   PD        0.582272    0.201850    0.486522     0.005394
NI1920   NI        0.626112    0.176326    0.488268     0.004307
PD1921   PD        0.605493    0.211292    0.444284     0.005394
NI1922   NI        0.652045    0.159480    0.443962     0.004307
NI1923   NI        0.641302    0.196090    0.482294     0.004307
NI1924   NI        0.677252    0.176998    0.478917     0.004307
NI1925   NI        0.687306    0.218842    0.439013     0.004307
NI1926   NI        0.710849    0.175978    0.443428     0.004307
NI1927   NI        0.714616    0.217986    0.490289     0.004307
NI1928   NI        0.763765    0.178919    0.480482     0.004307
NI1929   NI        0.743844    0.211219    0.443352     0.004307
NI1930   NI        0.779076    0.206608    0.478784     0.004307
NI1931   NI        0.058537    0.274694    0.440242     0.004307
NI1932   NI        0.066068    0.232809    0.456688     0.004307
PD1933   PD        0.091535    0.271660    0.474350     0.005394
NI1934   NI        0.107739    0.265826    0.458022     0.004307
PD1935   PD        0.126619    0.272033    0.439617     0.005394
PD1936   PD        0.161211    0.238061    0.441821     0.005394
NI1937   NI        0.157189    0.282323    0.473125     0.004307
PD1938   PD        0.194878    0.236959    0.476826     0.005394
PD1939   PD        0.195353    0.272345    0.441197     0.005394
PD1940   PD        0.229438    0.239327    0.442875     0.005394
PD1941   PD        0.228524    0.271712    0.477249     0.005394
PD1942   PD        0.262910    0.238933    0.477182     0.005394
PD1943   PD        0.282945    0.282998    0.438759     0.005394
PD1944   PD        0.298289    0.241288    0.444029     0.005394
PD1945   PD        0.297404    0.273152    0.479297     0.005394
PD1946   PD        0.330777    0.237822    0.477115     0.005394
PD1947   PD        0.330819    0.273911    0.444496     0.005394
PD1948   PD        0.366898    0.239768    0.443148     0.005394
PD1949   PD        0.365457    0.273201    0.476285     0.005394
PD1950   PD        0.398777    0.239734    0.478179     0.005394
PD1951   PD        0.398888    0.272154    0.442314     0.005394
PD1952   PD        0.453967    0.250121    0.443279     0.005394
PD1953   PD        0.448790    0.280143    0.466829     0.005394
PD1954   PD        0.469723    0.241008    0.478894     0.005394
PD1955   PD        0.473732    0.279123    0.431911     0.005394
PD1956   PD        0.514892    0.230381    0.447221     0.005394
PD1957   PD        0.503249    0.275826    0.479310     0.005394
PD1958   PD        0.535227    0.249907    0.476107     0.005394
PD1959   PD        0.533231    0.272101    0.459265     0.005394
NI1960   NI        0.577911    0.233258    0.436046     0.004307
PD1961   PD        0.572773    0.276451    0.481713     0.005394
PD1962   PD        0.618373    0.257317    0.472904     0.005394
PD1963   PD        0.608888    0.269901    0.450137     0.005394
PD1964   PD        0.640143    0.244692    0.441891     0.005394
PD1965   PD        0.640728    0.277942    0.476180     0.005394
NI1966   NI        0.702528    0.232204    0.480828     0.004307
PD1967   PD        0.690455    0.273898    0.431822     0.005394
NI1968   NI        0.722433    0.246267    0.455849     0.004307
NI1969   NI        0.714355    0.276991    0.471737     0.004307
NI1970   NI        0.761152    0.238863    0.485953     0.004307
NI1971   NI        0.733237    0.287018    0.428571     0.004307
NI1972   NI        0.773359    0.251801    0.442835     0.004307
NI1973   NI        0.794100    0.276643    0.461335     0.004307
NI1974   NI        0.812157    0.280473    0.442089     0.004307
NI1975   NI        0.060614    0.311029    0.476369     0.004307
NI1976   NI        0.060983    0.350109    0.446792     0.004307
PD1977   PD        0.093465    0.307442    0.439696     0.005394
NI1978   NI        0.094341    0.343301    0.475525     0.004307
PD1979   PD        0.125173    0.306005    0.475822     0.005394
PD1980   PD        0.127588    0.341674    0.443382     0.005394
NI1981   NI        0.136243    0.314486    0.462688     0.004307
PD1982   PD        0.161922    0.351607    0.478550     0.005394
PD1983   PD        0.195152    0.307463    0.477492     0.005394
NI1984   NI        0.185332    0.358546    0.448747     0.004307
PD1985   PD        0.229091    0.306955    0.443290     0.005394
PD1986   PD        0.200453    0.352661    0.468210     0.005394
PD1987   PD        0.263816    0.305756    0.475953     0.005394
PD1988   PD        0.263828    0.341757    0.443783     0.005394
PD1989   PD        0.298512    0.309407    0.447552     0.005394
PD1990   PD        0.294825    0.357956    0.468238     0.005394
PD1991   PD        0.331685    0.307802    0.480506     0.005394
PD1992   PD        0.334119    0.342934    0.447003     0.005394
PD1993   PD        0.353203    0.315319    0.414341     0.005394
PD1994   PD        0.359077    0.353725    0.488397     0.005394
PD1995   PD        0.435104    0.341184    0.476070     0.005394
PD1996   PD        0.401549    0.344745    0.441547     0.005394
PD1997   PD        0.433278    0.308996    0.443331     0.005394
PD1998   PD        0.440476    0.346520    0.467020     0.005394
PD1999   PD        0.470182    0.311111    0.479226     0.005394
PD2000   PD        0.470243    0.341680    0.445130     0.005394
PD2001   PD        0.506492    0.315220    0.427474     0.005394
PD2002   PD        0.504034    0.355985    0.482566     0.005394
PD2003   PD        0.531276    0.317721    0.476762     0.005394
PD2004   PD        0.522698    0.348109    0.425830     0.005394
PD2005   PD        0.573420    0.315207    0.430935     0.005394
PD2006   PD        0.572297    0.343590    0.468983     0.005394
PD2007   PD        0.624359    0.306010    0.468347     0.005394
PD2008   PD        0.609193    0.350965    0.451943     0.005394
PD2009   PD        0.637731    0.314086    0.445061     0.005394
PD2010   PD        0.638874    0.348326    0.482913     0.005394
NI2011   NI        0.676060    0.295696    0.465889     0.004307
PD2012   PD        0.674176    0.343934    0.440712     0.005394
NI2013   NI        0.732894    0.303819    0.436225     0.004307
NI2014   NI        0.713521    0.361798    0.472490     0.004307
NI2015   NI        0.737515    0.320788    0.481330     0.004307
PD2016   PD        0.743579    0.349111    0.442529     0.005394
NI2017   NI        0.805260    0.326295    0.439774     0.004307
NI2018   NI        0.816376    0.345183    0.488953     0.004307
NI2019   NI        0.819576    0.307581    0.485510     0.004307
NI2020   NI        0.812829    0.350993    0.440715     0.004307
NI2021   NI        0.027300    0.381049    0.442461     0.004307
NI2022   NI        0.000714    0.401231    0.484326     0.004307
NI2023   NI        0.045389    0.393876    0.479394     0.004307
NI2024   NI        0.042138    0.408095    0.458223     0.004307
PD2025   PD        0.093981    0.375019    0.438896     0.005394
NI2026   NI        0.078851    0.425740    0.480525     0.004307
PD2027   PD        0.130207    0.390565    0.472588     0.005394
PD2028   PD        0.122541    0.424972    0.437831     0.005394
PD2029   PD        0.162372    0.373961    0.439824     0.005394
PD2030   PD        0.156361    0.401222    0.464492     0.005394
PD2031   PD        0.196033    0.375492    0.477654     0.005394
PD2032   PD        0.163610    0.415790    0.425831     0.005394
PD2033   PD        0.220245    0.391445    0.455200     0.005394
PD2034   PD        0.229552    0.411061    0.477152     0.005394
PD2035   PD        0.260475    0.382579    0.455115     0.005394
PD2036   PD        0.265196    0.409980    0.445159     0.005394
PD2037   PD        0.301683    0.377644    0.446149     0.005394
PD2038   PD        0.291367    0.417279    0.479867     0.005394
PD2039   PD        0.323921    0.382814    0.475132     0.005394
PD2040   PD        0.334228    0.415292    0.441476     0.005394
PD2041   PD        0.367101    0.378801    0.442404     0.005394
PD2042   PD        0.369413    0.414010    0.475184     0.005394
PD2043   PD        0.402595    0.377379    0.477163     0.005394
PD2044   PD        0.416431    0.408191    0.453985     0.005394
PD2045   PD        0.436694    0.374957    0.443648     0.005394
PD2046   PD        0.436442    0.411504    0.475699     0.005394
PD2047   PD        0.469784    0.376194    0.477903     0.005394
PD2048   PD        0.464340    0.409658    0.458822     0.005394
PD2049   PD        0.507805    0.387048    0.434903     0.005394
PD2050   PD        0.507449    0.410034    0.480317     0.005394
PD2051   PD        0.539094    0.379642    0.478914     0.005394
PD2052   PD        0.544005    0.417515    0.429370     0.005394
PD2053   PD        0.575541    0.384366    0.450465     0.005394
PD2054   PD        0.581893    0.426202    0.472310     0.005394
PD2055   PD        0.608021    0.376923    0.469906     0.005394
PD2056   PD        0.608625    0.415974    0.450076     0.005394
PD2057   PD        0.640844    0.382431    0.435153     0.005394
PD2058   PD        0.656709    0.420613    0.468312     0.005394
PD2059   PD        0.691592    0.390924    0.479564     0.005394
PD2060   PD        0.711107    0.425744    0.453061     0.005394
PD2061   PD        0.719521    0.384498    0.431576     0.005394
NI2062   NI        0.723355    0.421631    0.473203     0.004307
PD2063   PD        0.734598    0.388151    0.477683     0.005394
NI2064   NI        0.753889    0.411577    0.448438     0.004307
NI2065   NI        0.811740    0.386983    0.413934     0.004307
NI2066   NI        0.788865    0.421479    0.477074     0.004307
NI2067   NI        0.818808    0.385109    0.465124     0.004307
NI2068   NI        0.844604    0.421204    0.462330     0.004307
NI2069   NI        0.843750    0.378288    0.447486     0.004307
NI2070   NI        0.852060    0.413757    0.480180     0.004307
NI2071   NI        0.029008    0.449522    0.444467     0.004307
NI2072   NI        0.023225    0.486564    0.475468     0.004307
NI2073   NI        0.059282    0.467771    0.473751     0.004307
NI2074   NI        0.038111    0.466079    0.445391     0.004307
NI2075   NI        0.091495    0.441706    0.445457     0.004307
NI2076   NI        0.079207    0.473284    0.468924     0.004307
PD2077   PD        0.124487    0.457035    0.474287     0.005394
PD2078   PD        0.135452    0.474508    0.439138     0.005394
NI2079   NI        0.148809    0.456993    0.445994     0.004307
PD2080   PD        0.159873    0.492570    0.476106     0.005394
PD2081   PD        0.200803    0.449741    0.488765     0.005394
PD2082   PD        0.192829    0.492515    0.442072     0.005394
PD2083   PD        0.228372    0.456530    0.441649     0.005394
PD2084   PD        0.229397    0.479411    0.471455     0.005394
PD2085   PD        0.249070    0.439678    0.490110     0.005394
PD2086   PD        0.266038    0.487158    0.446640     0.005394
PD2087   PD        0.310951    0.456136    0.419282     0.005394
PD2088   PD        0.319292    0.493562    0.491894     0.005394
PD2089   PD        0.331738    0.446235    0.479520     0.005394
PD2090   PD        0.318317    0.498136    0.446009     0.005394
PD2091   PD        0.368597    0.446983    0.440823     0.005394
PD2092   PD        0.374244    0.483364    0.467464     0.005394
PD2093   PD        0.404216    0.447746    0.475705     0.005394
PD2094   PD        0.407313    0.478865    0.431419     0.005394
PD2095   PD        0.437629    0.445565    0.439743     0.005394
PD2096   PD        0.436579    0.479744    0.489067     0.005394
PD2097   PD        0.467761    0.448327    0.475843     0.005394
PD2098   PD        0.464035    0.500259    0.449554     0.005394
PD2099   PD        0.516273    0.470854    0.422443     0.005394
PD2100   PD        0.500422    0.502512    0.480919     0.005394
PD2101   PD        0.538005    0.446226    0.481060     0.005394
PD2102   PD        0.551222    0.485269    0.434447     0.005394
PD2103   PD        0.581414    0.447593    0.428845     0.005394
PD2104   PD        0.566295    0.483909    0.481095     0.005394
PD2105   PD        0.606171    0.447592    0.484551     0.005394
PD2106   PD        0.617926    0.487782    0.429934     0.005394
PD2107   PD        0.640153    0.451246    0.451408     0.005394
PD2108   PD        0.644424    0.477358    0.486331     0.005394
PD2109   PD        0.678820    0.438362    0.473231     0.005394
PD2110   PD        0.687708    0.492460    0.442193     0.005394
PD2111   PD        0.707192    0.447941    0.437108     0.005394
PD2112   PD        0.713998    0.477648    0.484119     0.005394
PD2113   PD        0.746787    0.443436    0.480940     0.005394
NI2114   NI        0.759886    0.496250    0.459102     0.004307
PD2115   PD        0.775927    0.453100    0.443792     0.005394
NI2116   NI        0.799142    0.475053    0.479733     0.004307
NI2117   NI        0.810083    0.451455    0.473302     0.004307
NI2118   NI        0.807916    0.487289    0.443445     0.004307
NI2119   NI        0.855975    0.451417    0.426348     0.004307
NI2120   NI        0.853716    0.484014    0.457018     0.004307
NI2121   NI        0.020620    0.525817    0.447765     0.004307
NI2122   NI        0.055409    0.524968    0.478836     0.004307
NI2123   NI        0.052768    0.560673    0.445044     0.004307
PD2124   PD        0.086012    0.526945    0.442643     0.005394
NI2125   NI        0.085321    0.558684    0.479401     0.004307
PD2126   PD        0.122422    0.524765    0.475729     0.005394
PD2127   PD        0.122032    0.560469    0.442493     0.005394
NI2128   NI        0.159302    0.501516    0.452075     0.004307
PD2129   PD        0.157725    0.559669    0.476201     0.005394
PD2130   PD        0.194475    0.524836    0.475399     0.005394
PD2131   PD        0.189627    0.558913    0.440132     0.005394
PD2132   PD        0.230843    0.521366    0.443639     0.005394
PD2133   PD        0.225928    0.558886    0.474603     0.005394
PD2134   PD        0.262526    0.531158    0.463239     0.005394
PD2135   PD        0.256302    0.558023    0.438426     0.005394
PD2136   PD        0.294085    0.523445    0.440430     0.005394
PD2137   PD        0.295333    0.565203    0.464818     0.005394
PD2138   PD        0.331805    0.536354    0.468771     0.005394
PD2139   PD        0.319908    0.542800    0.434004     0.005394
PD2140   PD        0.359382    0.520224    0.434986     0.005394
PD2141   PD        0.370932    0.557850    0.490108     0.005394
PD2142   PD        0.399978    0.516898    0.477918     0.005394
PD2143   PD        0.398067    0.571161    0.446393     0.005394
PD2144   PD        0.428255    0.503368    0.447331     0.005394
PD2145   PD        0.433472    0.579444    0.472818     0.005394
PD2146   PD        0.460457    0.528817    0.472401     0.005394
PD2147   PD        0.476751    0.545967    0.435107     0.005394
PD2148   PD        0.504107    0.513841    0.452355     0.005394
PD2149   PD        0.501575    0.552540    0.475582     0.005394
PD2150   PD        0.542669    0.526346    0.478770     0.005394
PD2151   PD        0.545823    0.547565    0.435751     0.005394
PD2152   PD        0.579591    0.520516    0.432936     0.005394
PD2153   PD        0.605592    0.544339    0.465482     0.005394
PD2154   PD        0.616476    0.520561    0.466148     0.005394
PD2155   PD        0.610065    0.553393    0.434199     0.005394
PD2156   PD        0.648599    0.514178    0.450228     0.005394
PD2157   PD        0.645795    0.558261    0.465736     0.005394
PD2158   PD        0.676958    0.498941    0.476102     0.005394
PD2159   PD        0.680182    0.558454    0.433506     0.005394
NI2160   NI        0.730952    0.525760    0.444602     0.004307
PD2161   PD        0.706166    0.555349    0.472770     0.005394
NI2162   NI        0.773914    0.517368    0.506394     0.004307
NI2163   NI        0.751846    0.564921    0.456605     0.004307
NI2164   NI        0.776573    0.520285    0.440177     0.004307
NI2165   NI        0.795524    0.583211    0.462285     0.004307
NI2166   NI        0.810975    0.521636    0.493709     0.004307
NI2167   NI        0.811385    0.555424    0.443293     0.004307
NI2168   NI        0.859368    0.520625    0.426324     0.004307
NI2169   NI        0.024466    0.604808    0.485701     0.004307
NI2170   NI        0.042569    0.643537    0.464818     0.004307
PD2171   PD        0.088186    0.592403    0.445561     0.005394
PD2172   PD        0.089784    0.628632    0.478040     0.005394
PD2173   PD        0.123982    0.594632    0.477427     0.005394
PD2174   PD        0.120602    0.627841    0.442652     0.005394
PD2175   PD        0.157145    0.592902    0.441596     0.005394
PD2176   PD        0.155502    0.627710    0.476773     0.005394
NI2177   NI        0.196751    0.598454    0.495887     0.004307
PD2178   PD        0.189026    0.627778    0.441479     0.005394
PD2179   PD        0.209672    0.603953    0.447926     0.005394
PD2180   PD        0.226927    0.624681    0.474103     0.005394
PD2181   PD        0.260419    0.589335    0.473624     0.005394
PD2182   PD        0.273720    0.636245    0.460231     0.005394
PD2183   PD        0.303019    0.579043    0.440422     0.005394
PD2184   PD        0.295443    0.624186    0.472380     0.005394
PD2185   PD        0.333175    0.586348    0.478166     0.005394
PD2186   PD        0.327770    0.626866    0.434150     0.005394
PD2187   PD        0.363511    0.598045    0.427795     0.005394
PD2188   PD        0.366307    0.618469    0.474148     0.005394
PD2189   PD        0.390200    0.600479    0.485736     0.005394
PD2190   PD        0.392238    0.643504    0.443652     0.005394
PD2191   PD        0.426569    0.609343    0.447055     0.005394
PD2192   PD        0.448194    0.634760    0.481023     0.005394
PD2193   PD        0.483885    0.602465    0.478685     0.005394
PD2194   PD        0.473117    0.624868    0.447376     0.005394
PD2195   PD        0.509305    0.593474    0.438373     0.005394
PD2196   PD        0.493335    0.647164    0.485923     0.005394
PD2197   PD        0.540475    0.582488    0.472318     0.005394
PD2198   PD        0.529514    0.627466    0.459711     0.005394
PD2199   PD        0.579276    0.602428    0.428252     0.005394
PD2200   PD        0.573706    0.619369    0.471509     0.005394
PD2201   PD        0.623744    0.575218    0.488551     0.005394
PD2202   PD        0.607390    0.625682    0.436038     0.005394
PD2203   PD        0.643601    0.600816    0.453132     0.005394
PD2204   PD        0.638582    0.624105    0.473024     0.005394
PD2205   PD        0.676002    0.590848    0.471037     0.005394
PD2206   PD        0.677583    0.627388    0.436858     0.005394
PD2207   PD        0.714530    0.593621    0.438117     0.005394
NI2208   NI        0.726731    0.607563    0.483228     0.004307
NI2209   NI        0.745250    0.566177    0.464265     0.004307
NI2210   NI        0.743146    0.623184    0.440999     0.004307
NI2211   NI        0.777946    0.589848    0.441953     0.004307
NI2212   NI        0.778983    0.627355    0.474822     0.004307
NI2213   NI        0.832116    0.576915    0.469315     0.004307
NI2214   NI        0.839240    0.618393    0.450421     0.004307
NI2215   NI        0.076245    0.673794    0.420749     0.004307
NI2216   NI        0.092631    0.698449    0.478428     0.004307
PD2217   PD        0.124834    0.662537    0.476742     0.005394
NI2218   NI        0.140001    0.709038    0.461716     0.004307
PD2219   PD        0.156243    0.662865    0.441296     0.005394
PD2220   PD        0.159685    0.696858    0.475026     0.005394
PD2221   PD        0.191663    0.662304    0.475258     0.005394
NI2222   NI        0.205487    0.671940    0.429061     0.004307
PD2223   PD        0.225221    0.661151    0.441867     0.005394
NI2224   NI        0.207782    0.706464    0.475174     0.004307
PD2225   PD        0.273642    0.655478    0.470058     0.005394
NI2226   NI        0.249959    0.701064    0.449844     0.004307
PD2227   PD        0.308505    0.659755    0.438459     0.005394
PD2228   PD        0.302262    0.696327    0.474723     0.005394
PD2229   PD        0.320698    0.663954    0.479361     0.005394
PD2230   PD        0.332405    0.687880    0.436802     0.005394
PD2231   PD        0.372136    0.663101    0.436545     0.005394
PD2232   PD        0.375080    0.718432    0.501123     0.005394
PD2233   PD        0.402526    0.645692    0.468721     0.005394
PD2234   PD        0.407050    0.698706    0.438078     0.005394
PD2235   PD        0.438111    0.659099    0.438515     0.005394
PD2236   PD        0.440058    0.696443    0.472380     0.005394
PD2237   PD        0.485184    0.656084    0.484578     0.005394
PD2238   PD        0.475840    0.697126    0.438912     0.005394
PD2239   PD        0.514754    0.670370    0.449952     0.005394
PD2240   PD        0.506111    0.697002    0.471108     0.005394
PD2241   PD        0.540941    0.648596    0.492641     0.005394
NI2242   NI        0.522504    0.710319    0.446402     0.004307
PD2243   PD        0.594458    0.668556    0.432687     0.005394
PD2244   PD        0.574810    0.694329    0.470867     0.005394
PD2245   PD        0.604701    0.657489    0.472302     0.005394
PD2246   PD        0.608531    0.693409    0.437304     0.005394
PD2247   PD        0.641788    0.657588    0.439515     0.005394
PD2248   PD        0.638414    0.691753    0.473278     0.005394
PD2249   PD        0.673554    0.658664    0.473564     0.005394
NI2250   NI        0.687618    0.715239    0.450835     0.004307
PD2251   PD        0.710107    0.660124    0.437795     0.005394
NI2252   NI        0.709295    0.690407    0.475588     0.004307
NI2253   NI        0.740959    0.655177    0.475510     0.004307
NI2254   NI        0.761879    0.677817    0.450216     0.004307
NI2255   NI        0.780540    0.661554    0.441121     0.004307
NI2256   NI        0.780620    0.687689    0.480755     0.004307
NI2257   NI        0.129594    0.731686    0.475036     0.004307
NI2258   NI        0.159995    0.730079    0.440402     0.004307
NI2259   NI        0.194147    0.790802    0.468927     0.004307
NI2260   NI        0.195799    0.722363    0.467515     0.004307
NI2261   NI        0.197372    0.760028    0.435264     0.004307
PD2262   PD        0.231957    0.726547    0.440029     0.005394
NI2263   NI        0.228747    0.755127    0.470177     0.004307
NI2264   NI        0.246172    0.739102    0.479203     0.004307
NI2265   NI        0.261838    0.764730    0.453428     0.004307
NI2266   NI        0.294645    0.719130    0.432869     0.004307
NI2267   NI        0.320034    0.774247    0.482299     0.004307
PD2268   PD        0.334452    0.727827    0.473097     0.005394
NI2269   NI        0.350475    0.765518    0.458648     0.004307
NI2270   NI        0.381534    0.737196    0.458948     0.004307
PD2271   PD        0.372342    0.763090    0.472719     0.005394
PD2272   PD        0.406988    0.729716    0.470641     0.005394
PD2273   PD        0.406665    0.766879    0.438116     0.005394
PD2274   PD        0.440518    0.731026    0.438472     0.005394
PD2275   PD        0.449331    0.774803    0.486471     0.005394
PD2276   PD        0.480959    0.738500    0.485336     0.005394
NI2277   NI        0.464989    0.786179    0.440630     0.004307
PD2278   PD        0.508365    0.732282    0.436239     0.005394
NI2279   NI        0.494136    0.764577    0.471605     0.004307
PD2280   PD        0.548410    0.732632    0.484896     0.005394
PD2281   PD        0.543405    0.763948    0.437282     0.005394
PD2282   PD        0.576311    0.729593    0.436212     0.005394
PD2283   PD        0.577103    0.762038    0.470682     0.005394
NI2284   NI        0.613133    0.731330    0.482835     0.004307
PD2285   PD        0.612228    0.764703    0.436546     0.005394
NI2286   NI        0.646795    0.730425    0.436722     0.004307
NI2287   NI        0.652443    0.748893    0.458833     0.004307
NI2288   NI        0.688748    0.752194    0.467989     0.004307
NI2289   NI        0.689152    0.762130    0.465556     0.004307
NI2290   NI        0.717523    0.745242    0.429060     0.004307
NI2291   NI        0.736549    0.756565    0.471166     0.004307
NI2292   NI        0.764280    0.716474    0.478427     0.004307
NI2293   NI        0.169606    0.811312    0.493463     0.004307
NI2294   NI        0.233567    0.793239    0.439228     0.004307
NI2295   NI        0.273663    0.803864    0.478321     0.004307
NI2296   NI        0.267859    0.827941    0.438321     0.004307
NI2297   NI        0.281404    0.789427    0.451689     0.004307
NI2298   NI        0.284143    0.840579    0.453085     0.004307
NI2299   NI        0.355433    0.806526    0.483090     0.004307
NI2300   NI        0.337385    0.831385    0.441321     0.004307
NI2301   NI        0.370322    0.797768    0.438581     0.004307
NI2302   NI        0.349071    0.853600    0.479598     0.004307
PD2303   PD        0.407789    0.796502    0.475907     0.005394
NI2304   NI        0.407077    0.866411    0.407122     0.004307
PD2305   PD        0.439899    0.800234    0.439137     0.005394
NI2306   NI        0.447761    0.839648    0.484775     0.004307
PD2307   PD        0.476289    0.796650    0.473086     0.005394
PD2308   PD        0.476411    0.832990    0.441105     0.005394
PD2309   PD        0.510159    0.798171    0.438092     0.005394
NI2310   NI        0.510082    0.831495    0.473391     0.004307
PD2311   PD        0.544988    0.799365    0.472075     0.005394
PD2312   PD        0.543331    0.831567    0.436979     0.005394
NI2313   NI        0.582793    0.810250    0.457011     0.004307
NI2314   NI        0.554792    0.859733    0.499575     0.004307
NI2315   NI        0.611502    0.796176    0.473709     0.004307
NI2316   NI        0.614356    0.820419    0.434675     0.004307
NI2317   NI        0.647237    0.786907    0.431293     0.004307
NI2318   NI        0.695245    0.811174    0.453993     0.004307
NI2319   NI        0.373237    0.866125    0.439662     0.004307
NI2320   NI        0.429529    0.874208    0.477885     0.004307
NI2321   NI        0.439810    0.864437    0.442578     0.004307
NI2322   NI        0.476124    0.867903    0.472316     0.004307
NI2323   NI        0.511161    0.867375    0.438511     0.004307
NI2324   NI        0.264711    0.067548    0.509228     0.004307
NI2325   NI        0.299067    0.067624    0.544072     0.004307
PD2326   PD        0.333576    0.067917    0.510010     0.005394
PD2327   PD        0.366034    0.068017    0.545501     0.005394
PD2328   PD        0.401171    0.068442    0.512027     0.005394
NI2329   NI        0.404000    0.000714    0.510222     0.004307
NI2330   NI        0.434435    0.067955    0.546579     0.004307
NI2331   NI        0.486346    0.072863    0.510478     0.004307
NI2332   NI        0.504180    0.070901    0.547445     0.004307
NI2333   NI        0.542310    0.047893    0.524546     0.004307
NI2334   NI        0.595362    0.066392    0.566469     0.004307
NI2335   NI        0.608985    0.078386    0.508964     0.004307
PD2336   PD        0.193001    0.134961    0.510052     0.005394
NI2337   NI        0.220920    0.096957    0.519974     0.004307
NI2338   NI        0.204593    0.123265    0.554863     0.004307
PD2339   PD        0.262351    0.101818    0.544878     0.005394
NI2340   NI        0.266775    0.149538    0.499470     0.004307
PD2341   PD        0.299423    0.101911    0.510964     0.005394
PD2342   PD        0.298998    0.135626    0.545533     0.005394
PD2343   PD        0.333827    0.102821    0.546241     0.005394
PD2344   PD        0.332428    0.137733    0.512635     0.005394
PD2345   PD        0.366461    0.101734    0.511903     0.005394
PD2346   PD        0.366500    0.136215    0.547357     0.005394
PD2347   PD        0.400135    0.103544    0.546189     0.005394
PD2348   PD        0.402525    0.137596    0.512443     0.005394
PD2349   PD        0.436518    0.102712    0.513099     0.005394
NI2350   NI        0.424641    0.128219    0.561080     0.004307
NI2351   NI        0.457488    0.101861    0.535937     0.004307
PD2352   PD        0.470363    0.139089    0.512128     0.005394
PD2353   PD        0.503193    0.104683    0.512095     0.005394
PD2354   PD        0.506705    0.145922    0.543270     0.005394
PD2355   PD        0.539281    0.104854    0.545306     0.005394
PD2356   PD        0.538069    0.139319    0.512173     0.005394
NI2357   NI        0.582611    0.074009    0.514243     0.004307
PD2358   PD        0.572632    0.140784    0.543964     0.005394
NI2359   NI        0.608417    0.107418    0.545516     0.004307
NI2360   NI        0.642982    0.131063    0.522994     0.004307
NI2361   NI        0.642510    0.108611    0.511447     0.004307
NI2362   NI        0.641584    0.107021    0.579753     0.004307
NI2363   NI        0.688032    0.124086    0.520711     0.004307
PD2364   PD        0.126205    0.202885    0.508379     0.005394
PD2365   PD        0.158456    0.170250    0.509194     0.005394
NI2366   NI        0.147662    0.225336    0.557487     0.004307
PD2367   PD        0.192904    0.168733    0.546384     0.005394
PD2368   PD        0.194548    0.203932    0.512066     0.005394
PD2369   PD        0.227197    0.170543    0.511155     0.005394
PD2370   PD        0.227672    0.204578    0.545103     0.005394
PD2371   PD        0.263365    0.169142    0.544619     0.005394
NI2372   NI        0.250083    0.227706    0.499901     0.004307
PD2373   PD        0.298151    0.171203    0.511354     0.005394
PD2374   PD        0.298310    0.205004    0.545995     0.005394
PD2375   PD        0.333041    0.170053    0.545698     0.005394
PD2376   PD        0.330947    0.203493    0.511085     0.005394
PD2377   PD        0.367331    0.170640    0.512272     0.005394
PD2378   PD        0.366722    0.204858    0.546295     0.005394
PD2379   PD        0.400123    0.171873    0.546765     0.005394
PD2380   PD        0.399678    0.204567    0.510622     0.005394
PD2381   PD        0.434162    0.171095    0.514131     0.005394
PD2382   PD        0.434988    0.207489    0.546168     0.005394
PD2383   PD        0.469588    0.172879    0.545208     0.005394
PD2384   PD        0.469228    0.206310    0.512189     0.005394
PD2385   PD        0.507349    0.145600    0.542858     0.005394
PD2386   PD        0.503697    0.207482    0.546527     0.005394
PD2387   PD        0.538400    0.174076    0.545820     0.005394
PD2388   PD        0.539231    0.207988    0.511391     0.005394
PD2389   PD        0.571756    0.173763    0.511703     0.005394
PD2390   PD        0.571334    0.206058    0.546745     0.005394
NI2391   NI        0.630181    0.159066    0.557521     0.004307
NI2392   NI        0.616637    0.209841    0.519341     0.004307
NI2393   NI        0.651867    0.155480    0.524000     0.004307
NI2394   NI        0.649633    0.202948    0.512353     0.004307
NI2395   NI        0.674926    0.174925    0.545689     0.004307
PD2396   PD        0.675670    0.209530    0.512249     0.005394
NI2397   NI        0.709688    0.177547    0.512298     0.004307
PD2398   PD        0.710168    0.212161    0.545128     0.005394
NI2399   NI        0.749060    0.203900    0.518752     0.004307
NI2400   NI        0.050432    0.238595    0.509182     0.004307
NI2401   NI        0.092506    0.238705    0.509528     0.004307
NI2402   NI        0.057309    0.271954    0.577443     0.004307
PD2403   PD        0.124717    0.237302    0.544950     0.005394
PD2404   PD        0.125956    0.270871    0.510273     0.005394
PD2405   PD        0.159535    0.236084    0.509777     0.005394
PD2406   PD        0.158636    0.272181    0.544005     0.005394
PD2407   PD        0.192494    0.237145    0.546136     0.005394
PD2408   PD        0.208998    0.296550    0.503258     0.005394
NI2409   NI        0.203678    0.249773    0.502681     0.004307
PD2410   PD        0.225508    0.271819    0.544630     0.005394
PD2411   PD        0.262919    0.238070    0.544900     0.005394
PD2412   PD        0.253655    0.291150    0.491097     0.005394
PD2413   PD        0.296827    0.238835    0.510929     0.005394
PD2414   PD        0.295313    0.270521    0.544832     0.005394
PD2415   PD        0.331012    0.237950    0.546168     0.005394
PD2416   PD        0.331705    0.271521    0.512160     0.005394
PD2417   PD        0.366520    0.240508    0.511468     0.005394
PD2418   PD        0.366512    0.290278    0.550063     0.005394
PD2419   PD        0.399037    0.240102    0.546327     0.005394
PD2420   PD        0.401333    0.273571    0.512948     0.005394
PD2421   PD        0.435676    0.240975    0.511696     0.005394
PD2422   PD        0.447124    0.283739    0.534970     0.005394
PD2423   PD        0.468617    0.240360    0.546366     0.005394
PD2424   PD        0.481102    0.282854    0.501521     0.005394
PD2425   PD        0.503212    0.242332    0.512548     0.005394
PD2426   PD        0.502763    0.275697    0.548916     0.005394
PD2427   PD        0.538376    0.243682    0.546746     0.005394
PD2428   PD        0.539750    0.267862    0.519074     0.005394
PD2429   PD        0.570577    0.244768    0.513292     0.005394
PD2430   PD        0.572719    0.275142    0.548167     0.005394
PD2431   PD        0.604080    0.236456    0.543017     0.005394
PD2432   PD        0.609976    0.277413    0.514453     0.005394
NI2433   NI        0.664149    0.248562    0.509611     0.004307
NI2434   NI        0.648654    0.284015    0.543287     0.004307
PD2435   PD        0.685384    0.251258    0.543118     0.005394
NI2436   NI        0.698681    0.276914    0.524788     0.004307
NI2437   NI        0.726099    0.234975    0.522529     0.004307
NI2438   NI        0.723693    0.280544    0.534407     0.004307
NI2439   NI        0.745761    0.244807    0.544868     0.004307
NI2440   NI        0.743027    0.278695    0.510122     0.004307
NI2441   NI        0.779088    0.241913    0.513844     0.004307
NI2442   NI        0.776932    0.281156    0.547203     0.004307
NI2443   NI        0.825631    0.261520    0.496624     0.004307
NI2444   NI        0.026331    0.314361    0.573387     0.004307
NI2445   NI        0.041672    0.347263    0.491027     0.004307
NI2446   NI        0.092995    0.307337    0.509745     0.004307
NI2447   NI        0.099054    0.365256    0.545012     0.004307
NI2448   NI        0.111949    0.322790    0.554095     0.004307
PD2449   PD        0.125314    0.340382    0.509910     0.005394
PD2450   PD        0.160546    0.306092    0.509397     0.005394
PD2451   PD        0.158302    0.338836    0.545579     0.005394
PD2452   PD        0.192788    0.306130    0.544324     0.005394
PD2453   PD        0.193095    0.341059    0.512031     0.005394
PD2454   PD        0.227809    0.305183    0.511940     0.005394
PD2455   PD        0.228128    0.354112    0.547452     0.005394
PD2456   PD        0.261286    0.319671    0.543739     0.005394
PD2457   PD        0.265255    0.357081    0.514464     0.005394
PD2458   PD        0.294743    0.306488    0.512784     0.005394
PD2459   PD        0.297543    0.341372    0.547110     0.005394
PD2460   PD        0.322622    0.297445    0.567372     0.005394
PD2461   PD        0.333492    0.340848    0.511515     0.005394
PD2462   PD        0.375563    0.313141    0.508641     0.005394
PD2463   PD        0.366245    0.343406    0.546349     0.005394
PD2464   PD        0.418156    0.297905    0.543294     0.005394
PD2465   PD        0.397078    0.357904    0.515913     0.005394
PD2466   PD        0.426391    0.309267    0.497575     0.005394
PD2467   PD        0.435238    0.338713    0.559120     0.005394
PD2468   PD        0.475010    0.318411    0.552673     0.005394
PD2469   PD        0.476787    0.354731    0.521273     0.005394
PD2470   PD        0.501944    0.311100    0.514317     0.005394
PD2471   PD        0.473749    0.346399    0.543807     0.005394
PD2472   PD        0.537416    0.308089    0.547398     0.005394
PD2473   PD        0.542098    0.339144    0.507017     0.005394
PD2474   PD        0.576897    0.309293    0.527106     0.005394
PD2475   PD        0.571766    0.344568    0.550860     0.005394
PD2476   PD        0.618149    0.328603    0.536661     0.005394
PD2477   PD        0.609084    0.338636    0.499768     0.005394
PD2478   PD        0.640457    0.312368    0.513925     0.005394
PD2479   PD        0.639625    0.344769    0.550172     0.005394
PD2480   PD        0.680397    0.319194    0.542447     0.005394
PD2481   PD        0.695429    0.335814    0.501702     0.005394
NI2482   NI        0.708944    0.313386    0.509088     0.004307
PD2483   PD        0.705154    0.344149    0.545765     0.005394
NI2484   NI        0.765977    0.301209    0.533879     0.004307
NI2485   NI        0.741681    0.342192    0.511607     0.004307
NI2486   NI        0.777978    0.316169    0.510755     0.004307
NI2487   NI        0.776706    0.348788    0.542988     0.004307
NI2488   NI        0.834330    0.336918    0.564235     0.004307
NI2489   NI        0.809026    0.351669    0.513796     0.004307
NI2490   NI        0.057728    0.372987    0.529967     0.004307
NI2491   NI        0.039988    0.405732    0.501979     0.004307
NI2492   NI        0.095902    0.385092    0.507117     0.004307
NI2493   NI        0.092426    0.419101    0.541545     0.004307
NI2494   NI        0.126173    0.369765    0.555613     0.004307
NI2495   NI        0.123223    0.423227    0.503194     0.004307
PD2496   PD        0.156195    0.368623    0.522933     0.005394
PD2497   PD        0.159270    0.421914    0.545486     0.005394
PD2498   PD        0.193800    0.387656    0.544952     0.005394
PD2499   PD        0.180661    0.422029    0.522459     0.005394
PD2500   PD        0.229687    0.389363    0.510871     0.005394
PD2501   PD        0.224766    0.422294    0.545031     0.005394
PD2502   PD        0.260607    0.386805    0.552041     0.005394
PD2503   PD        0.263644    0.423258    0.518102     0.005394
PD2504   PD        0.298406    0.375578    0.512118     0.005394
PD2505   PD        0.290468    0.420727    0.541913     0.005394
PD2506   PD        0.325572    0.367825    0.557683     0.005394
PD2507   PD        0.343505    0.416365    0.512502     0.005394
PD2508   PD        0.365932    0.378756    0.511699     0.005394
PD2509   PD        0.377161    0.410739    0.547756     0.005394
PD2510   PD        0.384472    0.404177    0.546119     0.005394
PD2511   PD        0.405781    0.419881    0.507993     0.005394
PD2512   PD        0.436468    0.379876    0.512378     0.005394
PD2513   PD        0.445365    0.418063    0.534368     0.005394
PD2514   PD        0.465621    0.393044    0.549539     0.005394
PD2515   PD        0.469878    0.413470    0.507364     0.005394
PD2516   PD        0.513742    0.385321    0.519733     0.005394
PD2517   PD        0.512386    0.417388    0.555062     0.005394
PD2518   PD        0.547625    0.383365    0.556714     0.005394
PD2519   PD        0.538364    0.408208    0.515641     0.005394
PD2520   PD        0.570643    0.379745    0.517413     0.005394
PD2521   PD        0.591279    0.402018    0.551671     0.005394
PD2522   PD        0.609303    0.378946    0.554101     0.005394
PD2523   PD        0.613023    0.408411    0.505590     0.005394
PD2524   PD        0.661764    0.376948    0.515034     0.005394
PD2525   PD        0.637318    0.413295    0.536973     0.005394
PD2526   PD        0.675996    0.383214    0.543329     0.005394
PD2527   PD        0.682772    0.415317    0.490893     0.005394
PD2528   PD        0.714213    0.375372    0.515437     0.005394
PD2529   PD        0.718963    0.410781    0.555036     0.005394
NI2530   NI        0.749482    0.379677    0.541827     0.004307
NI2531   NI        0.740896    0.404611    0.516169     0.004307
NI2532   NI        0.788071    0.387920    0.514867     0.004307
NI2533   NI        0.778972    0.424986    0.535977     0.004307
NI2534   NI        0.837394    0.366630    0.548874     0.004307
NI2535   NI        0.829290    0.396062    0.494009     0.004307
NI2536   NI        0.017901    0.464839    0.526186     0.004307
NI2537   NI        0.059708    0.454481    0.546485     0.004307
NI2538   NI        0.056677    0.487933    0.511081     0.004307
PD2539   PD        0.091498    0.456358    0.509744     0.005394
NI2540   NI        0.102660    0.485055    0.545428     0.004307
PD2541   PD        0.125609    0.455866    0.541566     0.005394
PD2542   PD        0.125071    0.490734    0.508348     0.005394
PD2543   PD        0.142048    0.450930    0.529854     0.005394
PD2544   PD        0.155953    0.492522    0.544250     0.005394
PD2545   PD        0.175577    0.449165    0.529528     0.005394
PD2546   PD        0.191342    0.490656    0.510526     0.005394
PD2547   PD        0.223736    0.455934    0.509725     0.005394
PD2548   PD        0.225168    0.488945    0.546120     0.005394
PD2549   PD        0.254667    0.451228    0.548499     0.005394
PD2550   PD        0.272739    0.498576    0.510981     0.005394
PD2551   PD        0.293335    0.456248    0.508833     0.005394
PD2552   PD        0.292235    0.481915    0.549133     0.005394
PD2553   PD        0.328248    0.467747    0.523192     0.005394
PD2554   PD        0.334619    0.481282    0.510199     0.005394
PD2555   PD        0.372763    0.453032    0.526602     0.005394
PD2556   PD        0.371354    0.490633    0.539021     0.005394
PD2557   PD        0.396563    0.448911    0.538820     0.005394
PD2558   PD        0.400351    0.508017    0.502874     0.005394
PD2559   PD        0.436786    0.463623    0.518790     0.005394
PD2560   PD        0.437598    0.504538    0.531240     0.005394
PD2561   PD        0.480951    0.447441    0.536146     0.005394
PD2562   PD        0.481393    0.486152    0.522377     0.005394
PD2563   PD        0.512799    0.432769    0.522375     0.005394
PD2564   PD        0.500436    0.489969    0.542311     0.005394
PD2565   PD        0.537660    0.457950    0.551099     0.005394
PD2566   PD        0.535689    0.488067    0.514245     0.005394
PD2567   PD        0.569178    0.452748    0.515885     0.005394
PD2568   PD        0.577805    0.487314    0.552920     0.005394
PD2569   PD        0.620443    0.440005    0.540618     0.005394
PD2570   PD        0.603746    0.484444    0.511537     0.005394
PD2571   PD        0.664494    0.447219    0.519182     0.005394
PD2572   PD        0.645344    0.479822    0.553180     0.005394
PD2573   PD        0.683469    0.451506    0.553619     0.005394
NI2574   NI        0.693744    0.483970    0.507561     0.004307
PD2575   PD        0.712696    0.441574    0.517359     0.005394
PD2576   PD        0.718006    0.482171    0.530728     0.005394
NI2577   NI        0.749222    0.447928    0.546046     0.004307
NI2578   NI        0.732097    0.510313    0.517000     0.004307
NI2579   NI        0.783255    0.445891    0.512633     0.004307
NI2580   NI        0.782453    0.502187    0.547704     0.004307
NI2581   NI        0.814041    0.457208    0.544220     0.004307
NI2582   NI        0.808812    0.487187    0.507445     0.004307
NI2583   NI        0.864767    0.458612    0.493400     0.004307
NI2584   NI        0.055086    0.524922    0.544134     0.004307
NI2585   NI        0.053623    0.567039    0.490606     0.004307
PD2586   PD        0.089055    0.523377    0.510897     0.005394
PD2587   PD        0.089718    0.558968    0.544284     0.005394
PD2588   PD        0.123968    0.526676    0.544797     0.005394
PD2589   PD        0.124653    0.559354    0.510611     0.005394
PD2590   PD        0.165523    0.529826    0.529994     0.005394
NI2591   NI        0.153493    0.568528    0.558180     0.004307
PD2592   PD        0.192617    0.525264    0.544759     0.005394
PD2593   PD        0.192905    0.558655    0.509213     0.005394
PD2594   PD        0.227009    0.522039    0.511254     0.005394
NI2595   NI        0.212225    0.567526    0.566817     0.004307
PD2596   PD        0.261356    0.520571    0.545763     0.005394
PD2597   PD        0.259492    0.545808    0.520663     0.005394
PD2598   PD        0.295235    0.524074    0.492578     0.005394
PD2599   PD        0.297526    0.551058    0.554032     0.005394
PD2600   PD        0.308364    0.514350    0.533433     0.005394
PD2601   PD        0.329202    0.550547    0.508063     0.005394
PD2602   PD        0.353610    0.525050    0.512305     0.005394
PD2603   PD        0.363265    0.554609    0.548315     0.005394
PD2604   PD        0.404064    0.521112    0.561953     0.005394
PD2605   PD        0.403949    0.565062    0.514823     0.005394
PD2606   PD        0.430521    0.512190    0.522593     0.005394
PD2607   PD        0.431993    0.549262    0.534329     0.005394
PD2608   PD        0.474450    0.530637    0.549380     0.005394
PD2609   PD        0.463419    0.566232    0.501967     0.005394
PD2610   PD        0.515538    0.516645    0.505716     0.005394
PD2611   PD        0.512098    0.560380    0.552571     0.005394
PD2612   PD        0.537427    0.517958    0.546044     0.005394
PD2613   PD        0.544012    0.554711    0.516881     0.005394
PD2614   PD        0.579563    0.517818    0.498974     0.005394
PD2615   PD        0.570112    0.552080    0.545294     0.005394
PD2616   PD        0.603911    0.526686    0.547348     0.005394
PD2617   PD        0.625246    0.567585    0.508586     0.005394
PD2618   PD        0.662924    0.508527    0.519061     0.005394
PD2619   PD        0.651427    0.565850    0.550984     0.005394
PD2620   PD        0.687275    0.534129    0.552482     0.005394
PD2621   PD        0.705136    0.588951    0.507059     0.005394
PD2622   PD        0.704406    0.520518    0.506376     0.005394
NI2623   NI        0.731725    0.543744    0.553411     0.004307
PD2624   PD        0.739634    0.518746    0.540476     0.005394
NI2625   NI        0.769664    0.570193    0.497510     0.004307
NI2626   NI        0.779229    0.523927    0.509052     0.004307
NI2627   NI        0.791806    0.552163    0.531694     0.004307
NI2628   NI        0.835689    0.536068    0.536006     0.004307
NI2629   NI        0.839940    0.580165    0.517858     0.004307
NI2630   NI        0.026833    0.582209    0.522116     0.004307
NI2631   NI        0.056361    0.629748    0.512100     0.004307
PD2632   PD        0.089072    0.594455    0.511319     0.005394
NI2633   NI        0.091796    0.628365    0.546512     0.004307
NI2634   NI        0.115071    0.591800    0.571654     0.004307
PD2635   PD        0.124810    0.628041    0.512083     0.005394
NI2636   NI        0.166974    0.576121    0.528440     0.004307
PD2637   PD        0.159854    0.628090    0.543407     0.005394
PD2638   PD        0.194490    0.592987    0.543806     0.005394
PD2639   PD        0.192653    0.627594    0.509924     0.005394
PD2640   PD        0.226897    0.590979    0.509759     0.005394
PD2641   PD        0.229480    0.626181    0.542438     0.005394
PD2642   PD        0.262836    0.590071    0.543586     0.005394
PD2643   PD        0.262281    0.625737    0.507022     0.005394
PD2644   PD        0.294363    0.587787    0.507867     0.005394
PD2645   PD        0.297403    0.623593    0.539690     0.005394
PD2646   PD        0.327047    0.586598    0.539725     0.005394
PD2647   PD        0.329373    0.624866    0.506478     0.005394
PD2648   PD        0.372195    0.606184    0.499554     0.005394
PD2649   PD        0.378258    0.631835    0.544925     0.005394
PD2650   PD        0.410605    0.587813    0.552898     0.005394
PD2651   PD        0.391456    0.635722    0.515068     0.005394
PD2652   PD        0.436844    0.589990    0.490648     0.005394
PD2653   PD        0.446694    0.630424    0.550441     0.005394
PD2654   PD        0.467597    0.607926    0.544085     0.005394
PD2655   PD        0.460662    0.636008    0.506039     0.005394
PD2656   PD        0.513507    0.597205    0.517331     0.005394
PD2657   PD        0.495059    0.633180    0.543306     0.005394
PD2658   PD        0.536763    0.582903    0.537530     0.005394
PD2659   PD        0.514791    0.626565    0.504919     0.005394
PD2660   PD        0.578588    0.584883    0.504299     0.005394
PD2661   PD        0.565779    0.622276    0.532798     0.005394
PD2662   PD        0.616723    0.599123    0.552425     0.005394
PD2663   PD        0.604810    0.621323    0.508144     0.005394
PD2664   PD        0.652348    0.592812    0.523095     0.005394
NI2665   NI        0.651914    0.631986    0.555256     0.004307
NI2666   NI        0.683565    0.582474    0.550015     0.004307
PD2667   PD        0.674685    0.623941    0.506839     0.005394
NI2668   NI        0.708756    0.597366    0.504831     0.004307
NI2669   NI        0.708783    0.627851    0.540004     0.004307
NI2670   NI        0.774404    0.618091    0.545693     0.004307
NI2671   NI        0.746175    0.629849    0.507743     0.004307
NI2672   NI        0.778614    0.592643    0.509988     0.004307
NI2673   NI        0.777841    0.627518    0.544707     0.004307
NI2674   NI        0.810518    0.589130    0.546285     0.004307
NI2675   NI        0.814605    0.643408    0.529322     0.004307
NI2676   NI        0.091729    0.663646    0.512768     0.004307
NI2677   NI        0.127367    0.662487    0.548548     0.004307
NI2678   NI        0.127295    0.697459    0.509788     0.004307
NI2679   NI        0.160531    0.656801    0.527470     0.004307
PD2680   PD        0.161796    0.695203    0.544103     0.005394
PD2681   PD        0.194560    0.661841    0.542575     0.005394
PD2682   PD        0.194867    0.696063    0.509329     0.005394
PD2683   PD        0.227686    0.659738    0.507243     0.005394
PD2684   PD        0.230417    0.692456    0.542724     0.005394
PD2685   PD        0.265079    0.659646    0.541893     0.005394
NI2686   NI        0.252071    0.701213    0.510317     0.004307
PD2687   PD        0.313442    0.665841    0.525795     0.005394
NI2688   NI        0.307360    0.706158    0.543051     0.004307
PD2689   PD        0.332045    0.658139    0.539824     0.005394
PD2690   PD        0.334973    0.693014    0.505059     0.005394
PD2691   PD        0.363275    0.653756    0.504961     0.005394
PD2692   PD        0.370365    0.692953    0.537915     0.005394
PD2693   PD        0.415798    0.667682    0.546412     0.005394
PD2694   PD        0.406249    0.692947    0.505142     0.005394
PD2695   PD        0.434997    0.656003    0.505351     0.005394
PD2696   PD        0.436397    0.689262    0.537456     0.005394
PD2697   PD        0.486124    0.650421    0.543283     0.005394
PD2698   PD        0.479829    0.700913    0.519086     0.005394
PD2699   PD        0.517091    0.643251    0.506192     0.005394
PD2700   PD        0.512592    0.700842    0.552915     0.005394
PD2701   PD        0.535425    0.658104    0.535193     0.005394
PD2702   PD        0.547136    0.700648    0.518322     0.005394
PD2703   PD        0.577326    0.658767    0.504331     0.005394
PD2704   PD        0.580682    0.700991    0.553837     0.005394
PD2705   PD        0.602410    0.656975    0.540893     0.005394
PD2706   PD        0.603878    0.691117    0.505579     0.005394
PD2707   PD        0.637411    0.656138    0.508325     0.005394
PD2708   PD        0.640798    0.689094    0.543421     0.005394
PD2709   PD        0.683772    0.665617    0.551512     0.005394
NI2710   NI        0.681146    0.701357    0.518104     0.004307
NI2711   NI        0.716718    0.667667    0.515710     0.004307
NI2712   NI        0.717773    0.698257    0.550638     0.004307
NI2713   NI        0.741837    0.658212    0.544562     0.004307
NI2714   NI        0.743783    0.687994    0.512258     0.004307
NI2715   NI        0.777992    0.654778    0.510272     0.004307
NI2716   NI        0.163219    0.729428    0.508554     0.004307
NI2717   NI        0.168540    0.741886    0.539197     0.004307
NI2718   NI        0.199650    0.762946    0.508036     0.004307
PD2719   PD        0.232649    0.728454    0.509033     0.005394
NI2720   NI        0.212864    0.767822    0.548994     0.004307
NI2721   NI        0.271650    0.741202    0.531935     0.004307
NI2722   NI        0.276189    0.781800    0.496901     0.004307
NI2723   NI        0.281264    0.734248    0.505958     0.004307
NI2724   NI        0.302756    0.759478    0.540289     0.004307
NI2725   NI        0.324312    0.750444    0.536135     0.004307
PD2726   PD        0.337710    0.761676    0.506053     0.005394
PD2727   PD        0.370477    0.726350    0.503714     0.005394
PD2728   PD        0.372610    0.758457    0.540578     0.005394
PD2729   PD        0.404006    0.726856    0.538708     0.005394
NI2730   NI        0.412489    0.770744    0.517688     0.004307
NI2731   NI        0.419210    0.739828    0.496022     0.004307
NI2732   NI        0.445539    0.770062    0.551684     0.004307
PD2733   PD        0.485353    0.714983    0.541688     0.005394
PD2734   PD        0.482936    0.772275    0.519099     0.005394
PD2735   PD        0.514398    0.736921    0.519877     0.005394
NI2736   NI        0.488600    0.794086    0.546095     0.004307
PD2737   PD        0.547872    0.734030    0.554685     0.005394
PD2738   PD        0.545394    0.764093    0.505952     0.005394
PD2739   PD        0.580719    0.733768    0.517723     0.005394
PD2740   PD        0.578144    0.762884    0.540816     0.005394
PD2741   PD        0.616174    0.735023    0.553328     0.005394
NI2742   NI        0.617086    0.766623    0.515860     0.004307
PD2743   PD        0.640591    0.723329    0.512254     0.005394
NI2744   NI        0.648808    0.769325    0.555873     0.004307
NI2745   NI        0.680182    0.727091    0.538706     0.004307
NI2746   NI        0.669314    0.762680    0.509566     0.004307
NI2747   NI        0.715373    0.749927    0.518026     0.004307
NI2748   NI        0.210783    0.806443    0.520324     0.004307
NI2749   NI        0.268875    0.828006    0.577673     0.004307
NI2750   NI        0.285106    0.843216    0.501575     0.004307
NI2751   NI        0.278542    0.795445    0.510025     0.004307
NI2752   NI        0.302792    0.828963    0.543093     0.004307
NI2753   NI        0.314808    0.806424    0.502759     0.004307
NI2754   NI        0.326624    0.847965    0.522172     0.004307
NI2755   NI        0.370576    0.794977    0.526560     0.004307
NI2756   NI        0.372304    0.826649    0.541838     0.004307
NI2757   NI        0.406503    0.793634    0.541697     0.004307
NI2758   NI        0.408486    0.829290    0.510897     0.004307
NI2759   NI        0.442916    0.797529    0.506693     0.004307
NI2760   NI        0.445548    0.837433    0.553513     0.004307
NI2761   NI        0.475736    0.794626    0.542662     0.004307
NI2762   NI        0.474161    0.855400    0.487440     0.004307
NI2763   NI        0.498947    0.817161    0.504226     0.004307
NI2764   NI        0.509181    0.865439    0.507960     0.004307
NI2765   NI        0.544652    0.796130    0.541872     0.004307
NI2766   NI        0.546276    0.831643    0.505969     0.004307
PD2767   PD        0.578631    0.795956    0.505750     0.005394
NI2768   NI        0.575811    0.829816    0.541889     0.004307
NI2769   NI        0.615661    0.803563    0.555785     0.004307
NI2770   NI        0.592109    0.840789    0.498859     0.004307
NI2771   NI        0.630545    0.817489    0.505857     0.004307
NI2772   NI        0.460268    0.836549    0.528455     0.004307
NI2773   NI        0.330136    0.068723    0.579176     0.004307
NI2774   NI        0.365154    0.068341    0.614812     0.004307
NI2775   NI        0.383681    0.061598    0.599964     0.004307
NI2776   NI        0.435643    0.070573    0.615341     0.004307
NI2777   NI        0.469947    0.078304    0.576080     0.004307
NI2778   NI        0.514528    0.075221    0.588715     0.004307
NI2779   NI        0.538628    0.074317    0.580568     0.004307
NI2780   NI        0.194068    0.135289    0.578194     0.004307
PD2781   PD        0.227579    0.135759    0.612866     0.005394
NI2782   NI        0.260729    0.101690    0.612685     0.004307
PD2783   PD        0.264966    0.136382    0.579113     0.005394
PD2784   PD        0.296738    0.102587    0.578834     0.005394
PD2785   PD        0.297490    0.136098    0.614369     0.005394
NI2786   NI        0.326614    0.132469    0.619213     0.004307
PD2787   PD        0.330468    0.135194    0.580898     0.005394
PD2788   PD        0.364246    0.100660    0.580887     0.005394
PD2789   PD        0.365996    0.135728    0.613991     0.005394
PD2790   PD        0.400252    0.103065    0.613965     0.005394
PD2791   PD        0.401341    0.139119    0.580922     0.005394
NI2792   NI        0.418742    0.092480    0.595129     0.004307
PD2793   PD        0.434904    0.137707    0.614615     0.005394
NI2794   NI        0.469201    0.106415    0.612035     0.004307
PD2795   PD        0.469916    0.141670    0.580376     0.005394
PD2796   PD        0.504029    0.105470    0.579164     0.005394
PD2797   PD        0.505108    0.142272    0.614109     0.005394
NI2798   NI        0.538893    0.106306    0.615516     0.004307
PD2799   PD        0.538564    0.139668    0.581197     0.005394
PD2800   PD        0.571652    0.105419    0.581549     0.005394
PD2801   PD        0.572761    0.140079    0.614882     0.005394
NI2802   NI        0.607506    0.108081    0.615588     0.004307
NI2803   NI        0.605032    0.139614    0.582562     0.004307
NI2804   NI        0.641229    0.141549    0.613362     0.004307
NI2805   NI        0.689505    0.139358    0.592425     0.004307
NI2806   NI        0.125879    0.203354    0.577871     0.004307
NI2807   NI        0.160407    0.168394    0.578010     0.004307
NI2808   NI        0.159157    0.203178    0.612826     0.004307
NI2809   NI        0.193384    0.170187    0.614751     0.004307
NI2810   NI        0.182471    0.214778    0.600452     0.004307
NI2811   NI        0.255018    0.194599    0.583551     0.004307
PD2812   PD        0.227892    0.204584    0.613694     0.005394
PD2813   PD        0.263179    0.171389    0.613965     0.005394
PD2814   PD        0.260878    0.204065    0.579937     0.005394
PD2815   PD        0.297494    0.171779    0.579536     0.005394
PD2816   PD        0.297092    0.204574    0.614229     0.005394
PD2817   PD        0.330598    0.169397    0.614721     0.005394
PD2818   PD        0.331871    0.205040    0.580459     0.005394
PD2819   PD        0.365429    0.171626    0.579935     0.005394
PD2820   PD        0.364693    0.206312    0.612937     0.005394
PD2821   PD        0.398193    0.171678    0.614342     0.005394
PD2822   PD        0.398544    0.205363    0.581122     0.005394
PD2823   PD        0.434711    0.169933    0.582178     0.005394
PD2824   PD        0.432366    0.204791    0.614729     0.005394
PD2825   PD        0.470294    0.174751    0.614654     0.005394
PD2826   PD        0.479684    0.229326    0.579233     0.005394
PD2827   PD        0.504308    0.172286    0.579537     0.005394
PD2828   PD        0.503721    0.208021    0.616821     0.005394
PD2829   PD        0.536937    0.173273    0.614408     0.005394
PD2830   PD        0.538481    0.211181    0.582209     0.005394
PD2831   PD        0.573752    0.172788    0.582161     0.005394
PD2832   PD        0.570781    0.207538    0.614528     0.005394
NI2833   NI        0.574671    0.158446    0.607998     0.004307
NI2834   NI        0.612493    0.217100    0.570069     0.004307
NI2835   NI        0.678649    0.186041    0.615071     0.004307
NI2836   NI        0.641322    0.212063    0.614948     0.004307
NI2837   NI        0.674859    0.177247    0.614942     0.004307
NI2838   NI        0.675008    0.212021    0.577172     0.004307
NI2839   NI        0.708688    0.178790    0.580004     0.004307
NI2840   NI        0.709129    0.209634    0.615822     0.004307
NI2841   NI        0.742035    0.214491    0.581083     0.004307
NI2842   NI        0.089731    0.247454    0.634851     0.004307
NI2843   NI        0.128616    0.273190    0.624343     0.004307
PD2844   PD        0.125598    0.271863    0.577436     0.005394
PD2845   PD        0.158191    0.237333    0.579066     0.005394
NI2846   NI        0.158172    0.257583    0.636320     0.004307
PD2847   PD        0.193702    0.237266    0.611941     0.005394
NI2848   NI        0.193207    0.280407    0.598516     0.004307
NI2849   NI        0.240779    0.247176    0.580488     0.004307
PD2850   PD        0.230294    0.276816    0.608128     0.005394
PD2851   PD        0.263699    0.239461    0.614445     0.005394
NI2852   NI        0.268253    0.288846    0.581199     0.004307
PD2853   PD        0.296041    0.239318    0.578640     0.005394
PD2854   PD        0.295214    0.274189    0.612492     0.005394
PD2855   PD        0.330159    0.240145    0.613688     0.005394
PD2856   PD        0.329997    0.274240    0.577455     0.005394
PD2857   PD        0.365721    0.239284    0.579846     0.005394
PD2858   PD        0.363153    0.275963    0.612626     0.005394
PD2859   PD        0.397586    0.240293    0.615541     0.005394
PD2860   PD        0.399772    0.272231    0.579740     0.005394
PD2861   PD        0.434210    0.236680    0.583703     0.005394
PD2862   PD        0.432482    0.275346    0.611915     0.005394
PD2863   PD        0.479956    0.255202    0.604167     0.005394
PD2864   PD        0.467295    0.275648    0.578226     0.005394
PD2865   PD        0.501790    0.240691    0.579828     0.005394
PD2866   PD        0.516359    0.282665    0.617508     0.005394
NI2867   NI        0.540919    0.240105    0.617482     0.004307
PD2868   PD        0.540056    0.276654    0.580422     0.005394
PD2869   PD        0.571756    0.239207    0.582119     0.005394
PD2870   PD        0.576800    0.265106    0.606400     0.005394
PD2871   PD        0.605868    0.242497    0.613422     0.005394
PD2872   PD        0.592262    0.275348    0.591725     0.005394
NI2873   NI        0.645587    0.236586    0.569208     0.004307
NI2874   NI        0.648436    0.288561    0.611374     0.004307
NI2875   NI        0.675117    0.238944    0.616007     0.004307
PD2876   PD        0.674027    0.275123    0.581426     0.005394
NI2877   NI        0.708561    0.246513    0.581970     0.004307
NI2878   NI        0.720013    0.261873    0.628704     0.004307
NI2879   NI        0.765949    0.263519    0.612324     0.004307
NI2880   NI        0.742806    0.280791    0.578374     0.004307
NI2881   NI        0.803500    0.269786    0.624003     0.004307
NI2882   NI        0.061164    0.349135    0.572136     0.004307
NI2883   NI        0.090431    0.306500    0.578225     0.004307
NI2884   NI        0.092311    0.348827    0.608318     0.004307
NI2885   NI        0.103062    0.316884    0.636150     0.004307
NI2886   NI        0.151440    0.349703    0.592398     0.004307
PD2887   PD        0.159624    0.306720    0.579420     0.005394
NI2888   NI        0.179352    0.344167    0.614087     0.004307
PD2889   PD        0.193200    0.307249    0.613028     0.005394
PD2890   PD        0.193722    0.341418    0.578054     0.005394
PD2891   PD        0.228121    0.308109    0.579778     0.005394
PD2892   PD        0.227304    0.342155    0.611946     0.005394
PD2893   PD        0.259474    0.320008    0.614677     0.005394
PD2894   PD        0.262499    0.347087    0.580335     0.005394
PD2895   PD        0.292393    0.310190    0.581295     0.005394
PD2896   PD        0.296822    0.342042    0.611919     0.005394
PD2897   PD        0.330051    0.306813    0.613021     0.005394
PD2898   PD        0.329243    0.341047    0.577290     0.005394
PD2899   PD        0.363890    0.307536    0.580500     0.005394
PD2900   PD        0.366623    0.361922    0.628156     0.005394
PD2901   PD        0.398128    0.308809    0.614193     0.005394
PD2902   PD        0.390658    0.344560    0.583119     0.005394
PD2903   PD        0.434607    0.308526    0.579068     0.005394
PD2904   PD        0.429461    0.344388    0.611458     0.005394
PD2905   PD        0.473680    0.298424    0.625928     0.005394
PD2906   PD        0.473216    0.340330    0.592012     0.005394
PD2907   PD        0.504235    0.306641    0.583565     0.005394
PD2908   PD        0.497048    0.360169    0.623941     0.005394
PD2909   PD        0.535225    0.312398    0.616708     0.005394
PD2910   PD        0.536564    0.342445    0.581160     0.005394
PD2911   PD        0.567859    0.315423    0.605124     0.005394
PD2912   PD        0.569150    0.348072    0.612448     0.005394
PD2913   PD        0.609875    0.314578    0.614161     0.005394
PD2914   PD        0.607051    0.338156    0.582501     0.005394
PD2915   PD        0.640037    0.310183    0.583793     0.005394
PD2916   PD        0.649597    0.341338    0.617625     0.005394
NI2917   NI        0.685628    0.314634    0.599387     0.004307
PD2918   PD        0.664961    0.348712    0.575621     0.005394
NI2919   NI        0.709880    0.311339    0.579876     0.004307
NI2920   NI        0.710032    0.347910    0.610506     0.004307
NI2921   NI        0.734444    0.318782    0.608107     0.004307
NI2922   NI        0.747559    0.337100    0.564819     0.004307
NI2923   NI        0.777933    0.315604    0.578758     0.004307
NI2924   NI        0.811620    0.351705    0.617786     0.004307
NI2925   NI        0.816182    0.373826    0.593524     0.004307
NI2926   NI        0.058062    0.380985    0.607703     0.004307
NI2927   NI        0.062934    0.419646    0.580044     0.004307
NI2928   NI        0.092151    0.386866    0.577191     0.004307
NI2929   NI        0.086578    0.422920    0.608091     0.004307
NI2930   NI        0.126124    0.377845    0.611869     0.004307
NI2931   NI        0.095774    0.451273    0.578458     0.004307
PD2932   PD        0.160370    0.379393    0.568702     0.005394
NI2933   NI        0.164646    0.405353    0.621101     0.004307
PD2934   PD        0.204460    0.382130    0.619643     0.005394
PD2935   PD        0.190129    0.422242    0.577869     0.005394
PD2936   PD        0.226840    0.375883    0.577714     0.005394
PD2937   PD        0.237646    0.399347    0.618709     0.005394
PD2938   PD        0.251191    0.390742    0.624997     0.005394
PD2939   PD        0.261968    0.409827    0.579483     0.005394
PD2940   PD        0.295246    0.377287    0.579450     0.005394
PD2941   PD        0.280349    0.421983    0.625671     0.005394
PD2942   PD        0.331089    0.376373    0.613210     0.005394
PD2943   PD        0.333485    0.411601    0.577944     0.005394
PD2944   PD        0.364710    0.376890    0.581371     0.005394
PD2945   PD        0.352047    0.418569    0.601325     0.005394
PD2946   PD        0.398487    0.375770    0.619285     0.005394
PD2947   PD        0.415445    0.427144    0.572760     0.005394
PD2948   PD        0.421296    0.380202    0.576484     0.005394
PD2949   PD        0.432088    0.410590    0.613560     0.005394
PD2950   PD        0.478472    0.394963    0.610043     0.005394
PD2951   PD        0.467289    0.423615    0.574856     0.005394
PD2952   PD        0.500565    0.377535    0.577624     0.005394
PD2953   PD        0.495747    0.426007    0.614791     0.005394
PD2954   PD        0.545313    0.387891    0.623531     0.005394
PD2955   PD        0.534911    0.418971    0.587111     0.005394
PD2956   PD        0.581684    0.388263    0.591785     0.005394
PD2957   PD        0.579869    0.422866    0.625139     0.005394
PD2958   PD        0.614817    0.388462    0.626323     0.005394
PD2959   PD        0.615174    0.419689    0.589588     0.005394
PD2960   PD        0.649254    0.393082    0.579420     0.005394
PD2961   PD        0.653316    0.414883    0.624145     0.005394
PD2962   PD        0.671851    0.376367    0.614230     0.005394
PD2963   PD        0.684136    0.412545    0.585309     0.005394
NI2964   NI        0.716923    0.386674    0.596120     0.004307
NI2965   NI        0.720200    0.415432    0.616465     0.004307
NI2966   NI        0.749737    0.365971    0.616044     0.004307
NI2967   NI        0.747309    0.419947    0.579500     0.004307
NI2968   NI        0.772942    0.386401    0.578318     0.004307
NI2969   NI        0.774798    0.417182    0.616419     0.004307
NI2970   NI        0.818135    0.395679    0.633957     0.004307
NI2971   NI        0.812248    0.413865    0.586762     0.004307
NI2972   NI        0.052430    0.459563    0.611166     0.004307
NI2973   NI        0.043378    0.508286    0.593989     0.004307
NI2974   NI        0.085435    0.435214    0.587220     0.004307
NI2975   NI        0.088007    0.491457    0.613923     0.004307
PD2976   PD        0.121671    0.456986    0.611358     0.005394
PD2977   PD        0.122439    0.491498    0.578670     0.005394
PD2978   PD        0.156832    0.457302    0.577275     0.005394
PD2979   PD        0.156203    0.491778    0.613271     0.005394
PD2980   PD        0.206654    0.461671    0.616199     0.005394
PD2981   PD        0.190283    0.490832    0.580799     0.005394
PD2982   PD        0.220065    0.453882    0.579725     0.005394
NI2983   NI        0.201561    0.482260    0.613216     0.004307
NI2984   NI        0.229870    0.456511    0.602830     0.004307
PD2985   PD        0.257250    0.487916    0.580535     0.005394
PD2986   PD        0.295727    0.443701    0.575653     0.005394
PD2987   PD        0.291753    0.476524    0.610885     0.005394
PD2988   PD        0.346415    0.453384    0.637158     0.005394
PD2989   PD        0.326419    0.481683    0.582997     0.005394
PD2990   PD        0.354452    0.441171    0.591394     0.005394
PD2991   PD        0.366344    0.499304    0.622128     0.005394
PD2992   PD        0.389784    0.461252    0.616798     0.005394
PD2993   PD        0.414455    0.488061    0.592459     0.005394
PD2994   PD        0.433445    0.447086    0.599089     0.005394
PD2995   PD        0.446794    0.517054    0.613412     0.005394
PD2996   PD        0.480808    0.442217    0.609659     0.005394
PD2997   PD        0.472141    0.471437    0.572666     0.005394
PD2998   PD        0.512112    0.443215    0.573395     0.005394
PD2999   PD        0.514437    0.494287    0.618103     0.005394
PD3000   PD        0.547454    0.458952    0.619673     0.005394
PD3001   PD        0.535613    0.482060    0.575082     0.005394
PD3002   PD        0.572847    0.449006    0.581477     0.005394
PD3003   PD        0.573142    0.491633    0.602080     0.005394
PD3004   PD        0.614258    0.456583    0.624810     0.005394
PD3005   PD        0.614673    0.465890    0.600258     0.005394
PD3006   PD        0.651288    0.445762    0.589932     0.005394
PD3007   PD        0.652642    0.481450    0.622669     0.005394
NI3008   NI        0.681329    0.446733    0.606782     0.004307
PD3009   PD        0.681482    0.481723    0.583854     0.005394
NI3010   NI        0.720519    0.461869    0.582477     0.004307
PD3011   PD        0.709167    0.489726    0.607599     0.005394
NI3012   NI        0.756191    0.443301    0.620600     0.004307
NI3013   NI        0.743967    0.487955    0.572423     0.004307
NI3014   NI        0.781295    0.452053    0.581254     0.004307
NI3015   NI        0.782487    0.486235    0.614458     0.004307
NI3016   NI        0.833478    0.494139    0.613995     0.004307
NI3017   NI        0.807255    0.487676    0.578019     0.004307
NI3018   NI        0.058653    0.555270    0.620325     0.004307
NI3019   NI        0.056153    0.559391    0.578875     0.004307
NI3020   NI        0.097798    0.510648    0.574276     0.004307
NI3021   NI        0.090246    0.562423    0.614539     0.004307
PD3022   PD        0.123352    0.525988    0.612372     0.005394
NI3023   NI        0.114308    0.563775    0.587086     0.004307
PD3024   PD        0.156265    0.525468    0.578419     0.005394
PD3025   PD        0.157417    0.558941    0.611392     0.005394
NI3026   NI        0.197427    0.506530    0.631046     0.004307
PD3027   PD        0.192758    0.559559    0.577568     0.005394
PD3028   PD        0.226712    0.523910    0.578476     0.005394
PD3029   PD        0.226731    0.558734    0.613178     0.005394
PD3030   PD        0.259788    0.522756    0.612719     0.005394
PD3031   PD        0.258710    0.558226    0.577537     0.005394
PD3032   PD        0.292727    0.520824    0.577888     0.005394
PD3033   PD        0.296149    0.556928    0.610497     0.005394
PD3034   PD        0.343519    0.512990    0.616847     0.005394
PD3035   PD        0.320264    0.575045    0.587108     0.005394
PD3036   PD        0.373171    0.536846    0.590902     0.005394
PD3037   PD        0.363802    0.556968    0.610664     0.005394
PD3038   PD        0.409208    0.530024    0.614390     0.005394
PD3039   PD        0.409503    0.566100    0.582814     0.005394
PD3040   PD        0.431379    0.525594    0.571326     0.005394
PD3041   PD        0.444740    0.561035    0.617443     0.005394
PD3042   PD        0.487833    0.533419    0.629867     0.005394
PD3043   PD        0.466066    0.550647    0.569842     0.005394
PD3044   PD        0.502121    0.528239    0.586638     0.005394
PD3045   PD        0.513872    0.562779    0.619635     0.005394
PD3046   PD        0.546962    0.529695    0.617533     0.005394
PD3047   PD        0.549303    0.562778    0.584549     0.005394
PD3048   PD        0.574041    0.517788    0.582155     0.005394
PD3049   PD        0.590720    0.557109    0.607428     0.005394
PD3050   PD        0.611016    0.513399    0.613396     0.005394
PD3051   PD        0.615741    0.562494    0.584077     0.005394
PD3052   PD        0.644234    0.523574    0.572320     0.005394
NI3053   NI        0.630424    0.582697    0.613786     0.004307
PD3054   PD        0.684106    0.527848    0.618709     0.005394
PD3055   PD        0.673202    0.556321    0.576747     0.005394
NI3056   NI        0.734802    0.528527    0.597016     0.004307
PD3057   PD        0.711126    0.556197    0.609078     0.005394
NI3058   NI        0.726028    0.513853    0.622765     0.004307
NI3059   NI        0.737795    0.545106    0.593793     0.004307
NI3060   NI        0.779419    0.547998    0.604817     0.004307
NI3061   NI        0.774226    0.551352    0.611568     0.004307
NI3062   NI        0.813848    0.520470    0.611827     0.004307
NI3063   NI        0.837384    0.554394    0.580805     0.004307
NI3064   NI        0.071389    0.573715    0.573303     0.004307
NI3065   NI        0.092721    0.629675    0.615732     0.004307
NI3066   NI        0.146278    0.588555    0.601032     0.004307
PD3067   PD        0.126297    0.628108    0.579869     0.005394
PD3068   PD        0.160242    0.595143    0.579219     0.005394
PD3069   PD        0.161337    0.629835    0.612980     0.005394
PD3070   PD        0.192420    0.593325    0.613559     0.005394
NI3071   NI        0.178339    0.642757    0.583509     0.004307
NI3072   NI        0.205895    0.603310    0.591471     0.004307
PD3073   PD        0.229624    0.625157    0.611723     0.005394
PD3074   PD        0.263617    0.591537    0.610489     0.005394
PD3075   PD        0.263755    0.626132    0.575576     0.005394
PD3076   PD        0.294822    0.590534    0.576114     0.005394
PD3077   PD        0.291046    0.640693    0.617158     0.005394
PD3078   PD        0.332944    0.590157    0.606709     0.005394
PD3079   PD        0.328043    0.615218    0.598128     0.005394
PD3080   PD        0.365368    0.582743    0.571031     0.005394
PD3081   PD        0.362857    0.616472    0.646834     0.005394
PD3082   PD        0.413973    0.598744    0.617195     0.005394
PD3083   PD        0.399871    0.624332    0.573564     0.005394
PD3084   PD        0.446712    0.597019    0.582014     0.005394
PD3085   PD        0.438001    0.639641    0.611641     0.005394
PD3086   PD        0.478169    0.596966    0.619521     0.005394
PD3087   PD        0.479501    0.630776    0.586674     0.005394
PD3088   PD        0.513368    0.596725    0.584397     0.005394
PD3089   PD        0.512672    0.631540    0.621936     0.005394
PD3090   PD        0.547596    0.595654    0.620362     0.005394
PD3091   PD        0.545590    0.624421    0.564992     0.005394
PD3092   PD        0.581974    0.597449    0.586813     0.005394
NI3093   NI        0.566689    0.658101    0.585802     0.004307
PD3094   PD        0.615694    0.595826    0.621860     0.005394
PD3095   PD        0.615788    0.632915    0.587078     0.005394
PD3096   PD        0.651076    0.605092    0.575349     0.005394
PD3097   PD        0.649722    0.629663    0.619051     0.005394
PD3098   PD        0.678674    0.589105    0.607637     0.005394
PD3099   PD        0.673520    0.623455    0.575446     0.005394
NI3100   NI        0.709635    0.583049    0.573157     0.004307
NI3101   NI        0.740530    0.654065    0.612976     0.004307
NI3102   NI        0.741965    0.588292    0.609513     0.004307
NI3103   NI        0.745981    0.622467    0.573724     0.004307
NI3104   NI        0.801363    0.584973    0.591468     0.004307
NI3105   NI        0.775711    0.620385    0.611365     0.004307
NI3106   NI        0.128804    0.664908    0.614041     0.004307
NI3107   NI        0.129973    0.697310    0.578763     0.004307
PD3108   PD        0.163225    0.662064    0.578982     0.005394
NI3109   NI        0.166006    0.695807    0.613244     0.004307
NI3110   NI        0.199468    0.657292    0.611838     0.004307
PD3111   PD        0.197739    0.696530    0.578998     0.005394
PD3112   PD        0.230485    0.659725    0.575320     0.005394
NI3113   NI        0.231500    0.696755    0.611427     0.004307
NI3114   NI        0.254094    0.667155    0.616777     0.004307
NI3115   NI        0.259000    0.696766    0.578790     0.004307
NI3116   NI        0.280970    0.665009    0.596699     0.004307
PD3117   PD        0.300317    0.692981    0.604892     0.005394
PD3118   PD        0.333223    0.659444    0.608014     0.005394
NI3119   NI        0.328906    0.696977    0.580611     0.004307
PD3120   PD        0.367545    0.658043    0.573353     0.005394
PD3121   PD        0.369988    0.686770    0.609879     0.005394
PD3122   PD        0.398103    0.648929    0.609515     0.005394
PD3123   PD        0.398771    0.705128    0.579448     0.005394
PD3124   PD        0.424329    0.665225    0.572430     0.005394
PD3125   PD        0.443933    0.698312    0.620164     0.005394
PD3126   PD        0.478122    0.664315    0.621267     0.005394
PD3127   PD        0.478189    0.699933    0.586738     0.005394
NI3128   NI        0.507727    0.680886    0.595231     0.004307
PD3129   PD        0.511824    0.699356    0.622169     0.005394
PD3130   PD        0.545194    0.666454    0.621511     0.005394
PD3131   PD        0.547219    0.700755    0.587994     0.005394
PD3132   PD        0.581000    0.666247    0.588284     0.005394
PD3133   PD        0.581916    0.698522    0.621923     0.005394
PD3134   PD        0.615785    0.664849    0.621339     0.005394
NI3135   NI        0.613671    0.693221    0.572111     0.004307
PD3136   PD        0.649925    0.665255    0.586889     0.005394
NI3137   NI        0.660739    0.679520    0.609809     0.004307
NI3138   NI        0.698008    0.686278    0.589837     0.004307
NI3139   NI        0.684867    0.698919    0.587500     0.004307
NI3140   NI        0.718953    0.671684    0.591078     0.004307
NI3141   NI        0.718095    0.700693    0.624276     0.004307
NI3142   NI        0.754265    0.668059    0.624847     0.004307
NI3143   NI        0.752443    0.700380    0.586635     0.004307
NI3144   NI        0.165250    0.728271    0.580071     0.004307
NI3145   NI        0.200774    0.729172    0.612084     0.004307
NI3146   NI        0.204341    0.776111    0.596877     0.004307
NI3147   NI        0.233363    0.728359    0.575446     0.004307
NI3148   NI        0.220290    0.769004    0.609231     0.004307
NI3149   NI        0.284717    0.735268    0.598792     0.004307
NI3150   NI        0.251302    0.784943    0.582325     0.004307
NI3151   NI        0.280979    0.720144    0.577857     0.004307
NI3152   NI        0.265599    0.767473    0.625646     0.004307
NI3153   NI        0.323571    0.718606    0.622663     0.004307
NI3154   NI        0.326943    0.783958    0.571039     0.004307
PD3155   PD        0.368993    0.724940    0.574277     0.005394
NI3156   NI        0.371204    0.759178    0.608184     0.004307
PD3157   PD        0.409962    0.731989    0.618339     0.005394
PD3158   PD        0.406113    0.756439    0.576116     0.005394
PD3159   PD        0.439302    0.724715    0.573527     0.005394
NI3160   NI        0.427386    0.779725    0.605204     0.004307
NI3161   NI        0.462962    0.718901    0.625694     0.004307
NI3162   NI        0.475348    0.755859    0.566636     0.004307
PD3163   PD        0.513030    0.733929    0.588644     0.005394
PD3164   PD        0.514075    0.766975    0.623329     0.005394
PD3165   PD        0.545852    0.733299    0.623201     0.005394
PD3166   PD        0.546131    0.768145    0.590714     0.005394
NI3167   NI        0.566674    0.719392    0.597784     0.004307
NI3168   NI        0.579990    0.767708    0.623597     0.004307
NI3169   NI        0.616905    0.732006    0.622288     0.004307
NI3170   NI        0.605627    0.782935    0.561769     0.004307
NI3171   NI        0.649792    0.735119    0.587443     0.004307
NI3172   NI        0.650561    0.767226    0.622679     0.004307
NI3173   NI        0.683919    0.731864    0.620267     0.004307
NI3174   NI        0.685356    0.765115    0.585617     0.004307
NI3175   NI        0.716823    0.730135    0.585734     0.004307
NI3176   NI        0.270936    0.796601    0.609627     0.004307
NI3177   NI        0.304396    0.793579    0.575704     0.004307
NI3178   NI        0.331972    0.789738    0.637687     0.004307
NI3179   NI        0.337541    0.829810    0.576024     0.004307
NI3180   NI        0.369373    0.791280    0.576437     0.004307
NI3181   NI        0.389249    0.844784    0.635054     0.004307
NI3182   NI        0.409261    0.802821    0.622022     0.004307
NI3183   NI        0.397451    0.852107    0.565625     0.004307
NI3184   NI        0.408749    0.804437    0.580841     0.004307
NI3185   NI        0.440815    0.825477    0.609196     0.004307
NI3186   NI        0.475183    0.790593    0.607726     0.004307
NI3187   NI        0.473981    0.825733    0.577646     0.004307
NI3188   NI        0.513345    0.802282    0.591840     0.004307
NI3189   NI        0.492542    0.840771    0.591699     0.004307
NI3190   NI        0.547781    0.802195    0.624527     0.004307
NI3191   NI        0.542656    0.828290    0.576380     0.004307
NI3192   NI        0.576587    0.795817    0.575714     0.004307
NI3193   NI        0.613353    0.796839    0.608079     0.004307
PD3194   PD        0.263312    0.135423    0.647990     0.005394
NI3195   NI        0.296909    0.136642    0.681682     0.004307
PD3196   PD        0.332251    0.136868    0.647809     0.005394
NI3197   NI        0.368878    0.069755    0.684123     0.004307
NI3198   NI        0.378614    0.136618    0.678797     0.004307
NI3199   NI        0.391964    0.102918    0.709594     0.004307
PD3200   PD        0.400104    0.139528    0.648701     0.005394
PD3201   PD        0.433932    0.105492    0.650170     0.005394
NI3202   NI        0.439584    0.131906    0.699025     0.004307
NI3203   NI        0.469539    0.103411    0.682817     0.004307
PD3204   PD        0.468764    0.141810    0.646750     0.005394
NI3205   NI        0.502472    0.105336    0.648688     0.004307
NI3206   NI        0.499952    0.136061    0.685017     0.004307
NI3207   NI        0.534060    0.130189    0.621212     0.004307
NI3208   NI        0.563880    0.152998    0.670932     0.004307
NI3209   NI        0.605625    0.140615    0.649547     0.004307
NI3210   NI        0.189456    0.207165    0.634797     0.004307
PD3211   PD        0.228918    0.170154    0.647397     0.005394
NI3212   NI        0.228902    0.204938    0.682093     0.004307
PD3213   PD        0.262940    0.171831    0.683213     0.005394
PD3214   PD        0.262216    0.203890    0.646435     0.005394
PD3215   PD        0.296774    0.171435    0.648191     0.005394
PD3216   PD        0.297984    0.205353    0.683523     0.005394
PD3217   PD        0.330448    0.171185    0.683111     0.005394
NI3218   NI        0.360509    0.195415    0.659116     0.004307
PD3219   PD        0.365481    0.171899    0.649059     0.005394
PD3220   PD        0.364368    0.206881    0.682929     0.005394
PD3221   PD        0.400722    0.173927    0.683469     0.005394
PD3222   PD        0.399846    0.207726    0.647664     0.005394
PD3223   PD        0.432458    0.174227    0.649271     0.005394
PD3224   PD        0.434484    0.208052    0.681927     0.005394
PD3225   PD        0.467825    0.172653    0.682115     0.005394
NI3226   NI        0.469587    0.197264    0.652227     0.004307
PD3227   PD        0.504718    0.172867    0.647645     0.005394
PD3228   PD        0.501766    0.209874    0.682457     0.005394
NI3229   NI        0.559181    0.173633    0.690061     0.004307
NI3230   NI        0.548197    0.217140    0.637808     0.004307
NI3231   NI        0.570586    0.175602    0.644831     0.004307
PD3232   PD        0.570889    0.212036    0.681188     0.005394
NI3233   NI        0.606204    0.178591    0.682448     0.004307
PD3234   PD        0.605352    0.210922    0.649547     0.005394
NI3235   NI        0.641085    0.178449    0.648645     0.004307
NI3236   NI        0.640305    0.210703    0.682289     0.004307
NI3237   NI        0.672756    0.213496    0.645993     0.004307
NI3238   NI        0.125847    0.274660    0.646326     0.004307
NI3239   NI        0.158408    0.240744    0.644309     0.004307
NI3240   NI        0.158368    0.273390    0.678588     0.004307
NI3241   NI        0.193922    0.238273    0.682395     0.004307
PD3242   PD        0.194281    0.272315    0.648070     0.005394
NI3243   NI        0.242076    0.229828    0.672309     0.004307
PD3244   PD        0.227053    0.274173    0.681115     0.005394
PD3245   PD        0.261066    0.238447    0.682003     0.005394
PD3246   PD        0.260001    0.273100    0.647054     0.005394
PD3247   PD        0.295406    0.239950    0.648332     0.005394
PD3248   PD        0.294501    0.274784    0.680397     0.005394
PD3249   PD        0.329792    0.241346    0.681673     0.005394
PD3250   PD        0.329402    0.273972    0.648133     0.005394
NI3251   NI        0.392959    0.228345    0.666802     0.004307
PD3252   PD        0.363870    0.275533    0.681665     0.005394
NI3253   NI        0.386555    0.249674    0.668661     0.004307
PD3254   PD        0.398257    0.276246    0.648058     0.005394
PD3255   PD        0.432626    0.241824    0.646319     0.005394
PD3256   PD        0.432498    0.269888    0.685339     0.005394
NI3257   NI        0.458356    0.252471    0.687035     0.004307
PD3258   PD        0.468138    0.294127    0.662369     0.005394
NI3259   NI        0.500305    0.239853    0.646933     0.004307
NI3260   NI        0.503917    0.264850    0.678121     0.004307
PD3261   PD        0.535193    0.243899    0.682884     0.005394
PD3262   PD        0.551650    0.274286    0.646504     0.005394
NI3263   NI        0.578434    0.245542    0.647857     0.004307
NI3264   NI        0.572685    0.272791    0.684357     0.004307
NI3265   NI        0.604925    0.247649    0.682419     0.004307
NI3266   NI        0.617349    0.287723    0.645228     0.004307
PD3267   PD        0.640276    0.246164    0.649286     0.005394
NI3268   NI        0.639093    0.276863    0.688809     0.004307
NI3269   NI        0.673036    0.249098    0.682276     0.004307
NI3270   NI        0.682885    0.274795    0.654104     0.004307
NI3271   NI        0.709272    0.248571    0.647918     0.004307
NI3272   NI        0.706573    0.285606    0.682004     0.004307
NI3273   NI        0.749373    0.273091    0.639505     0.004307
NI3274   NI        0.137203    0.294095    0.708959     0.004307
NI3275   NI        0.115568    0.363717    0.667299     0.004307
NI3276   NI        0.132853    0.290590    0.658428     0.004307
NI3277   NI        0.158986    0.342435    0.682138     0.004307
NI3278   NI        0.187312    0.314493    0.701130     0.004307
NI3279   NI        0.211236    0.347913    0.651128     0.004307
PD3280   PD        0.226351    0.306805    0.645560     0.005394
NI3281   NI        0.238456    0.348802    0.689911     0.004307
PD3282   PD        0.260181    0.306701    0.681539     0.005394
PD3283   PD        0.260561    0.341802    0.646858     0.005394
PD3284   PD        0.295824    0.308324    0.646234     0.005394
NI3285   NI        0.288941    0.353737    0.686607     0.004307
PD3286   PD        0.327658    0.308653    0.681301     0.005394
PD3287   PD        0.322145    0.358165    0.649164     0.005394
PD3288   PD        0.359534    0.330743    0.662965     0.005394
NI3289   NI        0.372606    0.357944    0.701733     0.004307
PD3290   PD        0.392389    0.313350    0.693862     0.005394
PD3291   PD        0.400317    0.342342    0.649037     0.005394
PD3292   PD        0.418191    0.294002    0.657761     0.005394
PD3293   PD        0.445303    0.343601    0.692192     0.005394
PD3294   PD        0.466207    0.314611    0.679079     0.005394
PD3295   PD        0.467837    0.341612    0.650696     0.005394
PD3296   PD        0.510451    0.313671    0.656073     0.005394
PD3297   PD        0.512724    0.345795    0.690474     0.005394
NI3298   NI        0.548271    0.313661    0.687025     0.004307
PD3299   PD        0.541922    0.357029    0.641171     0.005394
PD3300   PD        0.566712    0.319202    0.653905     0.005394
PD3301   PD        0.563817    0.353778    0.679921     0.005394
NI3302   NI        0.616825    0.313767    0.687546     0.004307
PD3303   PD        0.608338    0.353632    0.642972     0.005394
NI3304   NI        0.643711    0.320306    0.665166     0.004307
NI3305   NI        0.629579    0.362067    0.685458     0.004307
NI3306   NI        0.682573    0.307394    0.688533     0.004307
NI3307   NI        0.689352    0.356527    0.640660     0.004307
NI3308   NI        0.710088    0.314811    0.649536     0.004307
NI3309   NI        0.708545    0.348397    0.684450     0.004307
NI3310   NI        0.748757    0.305061    0.692438     0.004307
NI3311   NI        0.740251    0.351521    0.645703     0.004307
NI3312   NI        0.102054    0.385708    0.647624     0.004307
NI3313   NI        0.085327    0.421151    0.676208     0.004307
NI3314   NI        0.132951    0.373768    0.683963     0.004307
NI3315   NI        0.128713    0.408625    0.653749     0.004307
NI3316   NI        0.169350    0.365992    0.649973     0.004307
NI3317   NI        0.167185    0.407813    0.682552     0.004307
NI3318   NI        0.190914    0.375206    0.678940     0.004307
NI3319   NI        0.192176    0.421943    0.646753     0.004307
NI3320   NI        0.232502    0.402556    0.666707     0.004307
NI3321   NI        0.224458    0.413888    0.699382     0.004307
NI3322   NI        0.263944    0.384399    0.700107     0.004307
PD3323   PD        0.266480    0.422611    0.645982     0.005394
PD3324   PD        0.280227    0.394511    0.661590     0.005394
PD3325   PD        0.297059    0.420233    0.678871     0.005394
PD3326   PD        0.345807    0.389066    0.679866     0.005394
PD3327   PD        0.327452    0.412810    0.644949     0.005394
PD3328   PD        0.372511    0.373480    0.641247     0.005394
PD3329   PD        0.348781    0.431883    0.670396     0.005394
NI3330   NI        0.396610    0.382600    0.718318     0.004307
PD3331   PD        0.407010    0.403035    0.654883     0.005394
PD3332   PD        0.435404    0.393033    0.660318     0.005394
PD3333   PD        0.448232    0.406313    0.676754     0.005394
PD3334   PD        0.478500    0.379669    0.693255     0.005394
PD3335   PD        0.477703    0.414170    0.658788     0.005394
PD3336   PD        0.513352    0.380853    0.658245     0.005394
PD3337   PD        0.511833    0.413694    0.693243     0.005394
PD3338   PD        0.547668    0.380124    0.690177     0.005394
PD3339   PD        0.540334    0.423020    0.654577     0.005394
PD3340   PD        0.575408    0.389121    0.655575     0.005394
PD3341   PD        0.581258    0.423015    0.683074     0.005394
PD3342   PD        0.611306    0.387757    0.674585     0.005394
PD3343   PD        0.619183    0.422088    0.652318     0.005394
PD3344   PD        0.649275    0.377908    0.653334     0.005394
PD3345   PD        0.651166    0.411038    0.686125     0.005394
NI3346   NI        0.677601    0.372465    0.687709     0.004307
PD3347   PD        0.698735    0.408312    0.635446     0.005394
NI3348   NI        0.701004    0.380790    0.643500     0.004307
NI3349   NI        0.698133    0.413938    0.681346     0.004307
NI3350   NI        0.755808    0.375034    0.683955     0.004307
NI3351   NI        0.752561    0.400837    0.649717     0.004307
NI3352   NI        0.790321    0.391899    0.657395     0.004307
NI3353   NI        0.780631    0.415331    0.685257     0.004307
NI3354   NI        0.084224    0.425671    0.667022     0.004307
NI3355   NI        0.074270    0.488417    0.668078     0.004307
NI3356   NI        0.105780    0.461334    0.692020     0.004307
NI3357   NI        0.115452    0.490317    0.640923     0.004307
NI3358   NI        0.161036    0.443741    0.652681     0.004307
NI3359   NI        0.156156    0.489619    0.680032     0.004307
NI3360   NI        0.196660    0.445515    0.686026     0.004307
NI3361   NI        0.185147    0.485272    0.664887     0.004307
PD3362   PD        0.222813    0.459215    0.649380     0.005394
NI3363   NI        0.227525    0.478103    0.694216     0.004307
NI3364   NI        0.242684    0.460813    0.691886     0.004307
PD3365   PD        0.262137    0.499523    0.637503     0.005394
PD3366   PD        0.288507    0.461578    0.655245     0.005394
NI3367   NI        0.294589    0.486991    0.693494     0.004307
PD3368   PD        0.305671    0.455482    0.711469     0.005394
PD3369   PD        0.325160    0.493005    0.654157     0.005394
PD3370   PD        0.386445    0.463118    0.664191     0.005394
PD3371   PD        0.358967    0.492342    0.687531     0.005394
PD3372   PD        0.411518    0.456929    0.679669     0.005394
PD3373   PD        0.391460    0.483676    0.649813     0.005394
PD3374   PD        0.424326    0.457338    0.668586     0.005394
PD3375   PD        0.431915    0.478619    0.684832     0.005394
PD3376   PD        0.466754    0.446654    0.690512     0.005394
PD3377   PD        0.478942    0.493605    0.650657     0.005394
PD3378   PD        0.515596    0.462877    0.639183     0.005394
PD3379   PD        0.511970    0.493057    0.686386     0.005394
PD3380   PD        0.532151    0.455625    0.684511     0.005394
PD3381   PD        0.546622    0.494846    0.651160     0.005394
PD3382   PD        0.582223    0.445139    0.652506     0.005394
PD3383   PD        0.598404    0.479848    0.681331     0.005394
PD3384   PD        0.623631    0.447444    0.694212     0.005394
PD3385   PD        0.627519    0.483378    0.663553     0.005394
PD3386   PD        0.655550    0.449479    0.657436     0.005394
PD3387   PD        0.645057    0.489183    0.682962     0.005394
NI3388   NI        0.688754    0.439809    0.691933     0.004307
PD3389   PD        0.684821    0.493036    0.654864     0.005394
NI3390   NI        0.725261    0.440808    0.658152     0.004307
NI3391   NI        0.718720    0.492378    0.687269     0.004307
NI3392   NI        0.760124    0.468580    0.668103     0.004307
NI3393   NI        0.749717    0.487789    0.651488     0.004307
NI3394   NI        0.787841    0.460169    0.651944     0.004307
NI3395   NI        0.784694    0.490600    0.680936     0.004307
NI3396   NI        0.089818    0.527562    0.647895     0.004307
NI3397   NI        0.110054    0.500392    0.690331     0.004307
NI3398   NI        0.124900    0.560483    0.648180     0.004307
PD3399   PD        0.157755    0.524056    0.646619     0.005394
NI3400   NI        0.157267    0.560337    0.681974     0.004307
PD3401   PD        0.189071    0.524872    0.681096     0.005394
PD3402   PD        0.192184    0.558882    0.646410     0.005394
PD3403   PD        0.225827    0.526746    0.648077     0.005394
PD3404   PD        0.224194    0.558188    0.682372     0.005394
PD3405   PD        0.272147    0.524770    0.677630     0.005394
PD3406   PD        0.260154    0.560833    0.645991     0.005394
PD3407   PD        0.304642    0.525637    0.643145     0.005394
NI3408   NI        0.272977    0.550614    0.680752     0.004307
NI3409   NI        0.325111    0.536069    0.697088     0.004307
PD3410   PD        0.339863    0.558978    0.644140     0.005394
PD3411   PD        0.375043    0.527365    0.645135     0.005394
PD3412   PD        0.372590    0.558501    0.680421     0.005394
PD3413   PD        0.396849    0.522160    0.679634     0.005394
PD3414   PD        0.419802    0.555481    0.662919     0.005394
PD3415   PD        0.432697    0.509314    0.648688     0.005394
PD3416   PD        0.445806    0.559668    0.685264     0.005394
PD3417   PD        0.460338    0.515836    0.686595     0.005394
PD3418   PD        0.478336    0.563579    0.651927     0.005394
PD3419   PD        0.535937    0.529000    0.646641     0.005394
PD3420   PD        0.512550    0.562446    0.687719     0.005394
NI3421   NI        0.569122    0.521042    0.713619     0.004307
PD3422   PD        0.547374    0.561843    0.653887     0.005394
PD3423   PD        0.581244    0.527340    0.652528     0.005394
PD3424   PD        0.582031    0.562050    0.689390     0.005394
PD3425   PD        0.614485    0.525217    0.686466     0.005394
PD3426   PD        0.614919    0.561309    0.653923     0.005394
PD3427   PD        0.649129    0.527154    0.652001     0.005394
PD3428   PD        0.649455    0.560769    0.686955     0.005394
PD3429   PD        0.684307    0.526458    0.686047     0.005394
NI3430   NI        0.677431    0.555982    0.645450     0.004307
NI3431   NI        0.726407    0.517211    0.671785     0.004307
NI3432   NI        0.719270    0.561479    0.688507     0.004307
NI3433   NI        0.752916    0.527999    0.690118     0.004307
NI3434   NI        0.747799    0.548300    0.639379     0.004307
NI3435   NI        0.804169    0.542024    0.644259     0.004307
NI3436   NI        0.126503    0.595616    0.682377     0.004307
NI3437   NI        0.127858    0.629499    0.647658     0.004307
NI3438   NI        0.162521    0.596540    0.645589     0.004307
NI3439   NI        0.188688    0.637782    0.692165     0.004307
NI3440   NI        0.208556    0.604098    0.688016     0.004307
PD3441   PD        0.195442    0.628177    0.646338     0.005394
PD3442   PD        0.226484    0.594459    0.644941     0.005394
PD3443   PD        0.236138    0.626968    0.680787     0.005394
NI3444   NI        0.251610    0.587175    0.703994     0.004307
NI3445   NI        0.244402    0.624034    0.651948     0.004307
NI3446   NI        0.270410    0.586527    0.657822     0.004307
PD3447   PD        0.305433    0.627337    0.676317     0.005394
PD3448   PD        0.338625    0.592202    0.677914     0.005394
PD3449   PD        0.341103    0.629541    0.645761     0.005394
PD3450   PD        0.380552    0.577538    0.653497     0.005394
NI3451   NI        0.351509    0.629497    0.705225     0.004307
NI3452   NI        0.414825    0.604128    0.697894     0.004307
PD3453   PD        0.410730    0.628285    0.655973     0.005394
PD3454   PD        0.443607    0.595500    0.652871     0.005394
PD3455   PD        0.427272    0.640563    0.686896     0.005394
PD3456   PD        0.478269    0.595486    0.687135     0.005394
PD3457   PD        0.479060    0.629863    0.653415     0.005394
NI3458   NI        0.508310    0.587047    0.665826     0.004307
PD3459   PD        0.511779    0.629642    0.688666     0.005394
PD3460   PD        0.545875    0.595320    0.687864     0.005394
PD3461   PD        0.547417    0.631312    0.655318     0.005394
PD3462   PD        0.581789    0.596990    0.655330     0.005394
PD3463   PD        0.581224    0.628795    0.689643     0.005394
PD3464   PD        0.616440    0.595295    0.687875     0.005394
NI3465   NI        0.628764    0.621842    0.632836     0.004307
PD3466   PD        0.649688    0.594828    0.654377     0.005394
NI3467   NI        0.649043    0.629041    0.687695     0.004307
NI3468   NI        0.684357    0.594552    0.690066     0.004307
NI3469   NI        0.683916    0.631727    0.655164     0.004307
NI3470   NI        0.731024    0.577068    0.637780     0.004307
NI3471   NI        0.719181    0.627918    0.686425     0.004307
NI3472   NI        0.752893    0.595294    0.687870     0.004307
NI3473   NI        0.751789    0.628997    0.653385     0.004307
NI3474   NI        0.163262    0.662802    0.648236     0.004307
NI3475   NI        0.205123    0.683315    0.687773     0.004307
NI3476   NI        0.200111    0.695158    0.647422     0.004307
NI3477   NI        0.235467    0.673188    0.668589     0.004307
NI3478   NI        0.221611    0.708940    0.696432     0.004307
PD3479   PD        0.268254    0.660397    0.677735     0.005394
NI3480   NI        0.239241    0.700557    0.648378     0.004307
NI3481   NI        0.278438    0.661414    0.658597     0.004307
PD3482   PD        0.302812    0.694814    0.679323     0.005394
PD3483   PD        0.337654    0.662423    0.679429     0.005394
PD3484   PD        0.338628    0.694918    0.644030     0.005394
PD3485   PD        0.374963    0.660696    0.648842     0.005394
NI3486   NI        0.371331    0.696984    0.680909     0.004307
PD3487   PD        0.408061    0.663829    0.685686     0.005394
PD3488   PD        0.409014    0.698032    0.652382     0.005394
PD3489   PD        0.444144    0.664466    0.653976     0.005394
PD3490   PD        0.442498    0.696890    0.688357     0.005394
PD3491   PD        0.477395    0.664079    0.687530     0.005394
PD3492   PD        0.476229    0.698867    0.654611     0.005394
PD3493   PD        0.513676    0.664828    0.654994     0.005394
PD3494   PD        0.510955    0.697037    0.690259     0.005394
PD3495   PD        0.546899    0.663630    0.690624     0.005394
PD3496   PD        0.547075    0.697918    0.655700     0.005394
PD3497   PD        0.581971    0.664536    0.654576     0.005394
PD3498   PD        0.579811    0.699391    0.689269     0.005394
NI3499   NI        0.594623    0.651680    0.700598     0.004307
PD3500   PD        0.615335    0.699101    0.655650     0.005394
PD3501   PD        0.650088    0.663406    0.654349     0.005394
NI3502   NI        0.649416    0.697513    0.690115     0.004307
NI3503   NI        0.684477    0.661657    0.688984     0.004307
NI3504   NI        0.683559    0.696757    0.657370     0.004307
NI3505   NI        0.706964    0.650560    0.647446     0.004307
NI3506   NI        0.244199    0.748492    0.626014     0.004307
NI3507   NI        0.240736    0.752008    0.705125     0.004307
NI3508   NI        0.270014    0.762897    0.642593     0.004307
NI3509   NI        0.299115    0.715291    0.659024     0.004307
NI3510   NI        0.303817    0.762510    0.677436     0.004307
NI3511   NI        0.319862    0.721110    0.670043     0.004307
NI3512   NI        0.339366    0.758979    0.642197     0.004307
NI3513   NI        0.365209    0.723323    0.671830     0.004307
NI3514   NI        0.355595    0.767818    0.686564     0.004307
NI3515   NI        0.405153    0.731076    0.684933     0.004307
NI3516   NI        0.406236    0.757312    0.642618     0.004307
PD3517   PD        0.442388    0.733625    0.654351     0.005394
NI3518   NI        0.440735    0.764550    0.689492     0.004307
PD3519   PD        0.475852    0.730467    0.689855     0.005394
NI3520   NI        0.452706    0.777935    0.645107     0.004307
PD3521   PD        0.510319    0.732213    0.657894     0.005394
NI3522   NI        0.512066    0.766266    0.692577     0.004307
NI3523   NI        0.521709    0.742359    0.681064     0.004307
NI3524   NI        0.516985    0.754755    0.656022     0.004307
PD3525   PD        0.580316    0.732490    0.657797     0.005394
NI3526   NI        0.580084    0.766156    0.691855     0.004307
NI3527   NI        0.616002    0.731619    0.689926     0.004307
NI3528   NI        0.612534    0.761347    0.642308     0.004307
NI3529   NI        0.649496    0.731856    0.654308     0.004307
NI3530   NI        0.375211    0.802106    0.656087     0.004307
NI3531   NI        0.385289    0.806112    0.685072     0.004307
NI3532   NI        0.414665    0.806453    0.635463     0.004307
NI3533   NI        0.477369    0.801360    0.691290     0.004307
NI3534   NI        0.496719    0.793881    0.639505     0.004307
NI3535   NI        0.423086    0.133056    0.698068     0.004307
NI3536   NI        0.455803    0.152844    0.726431     0.004307
NI3537   NI        0.261054    0.206983    0.717809     0.004307
NI3538   NI        0.296804    0.172725    0.716898     0.004307
NI3539   NI        0.298825    0.205025    0.751089     0.004307
PD3540   PD        0.329296    0.206029    0.718037     0.005394
NI3541   NI        0.355446    0.149293    0.715879     0.004307
NI3542   NI        0.365863    0.207368    0.750281     0.004307
NI3543   NI        0.399640    0.173581    0.750359     0.004307
NI3544   NI        0.398242    0.207313    0.715713     0.004307
PD3545   PD        0.434753    0.174830    0.716115     0.005394
NI3546   NI        0.433600    0.209818    0.750415     0.004307
NI3547   NI        0.469634    0.176939    0.750764     0.004307
NI3548   NI        0.494649    0.230353    0.724133     0.004307
NI3549   NI        0.504083    0.182416    0.714707     0.004307
NI3550   NI        0.502843    0.214035    0.751467     0.004307
NI3551   NI        0.539811    0.206419    0.712331     0.004307
NI3552   NI        0.597406    0.158678    0.715428     0.004307
NI3553   NI        0.571494    0.212850    0.751873     0.004307
NI3554   NI        0.587339    0.210269    0.756045     0.004307
NI3555   NI        0.203683    0.276723    0.729500     0.004307
NI3556   NI        0.230269    0.204246    0.751242     0.004307
NI3557   NI        0.227714    0.276872    0.752418     0.004307
NI3558   NI        0.280787    0.248980    0.740422     0.004307
NI3559   NI        0.243927    0.291627    0.725277     0.004307
NI3560   NI        0.287226    0.231059    0.695129     0.004307
NI3561   NI        0.296215    0.241105    0.784850     0.004307
PD3562   PD        0.331110    0.241446    0.750860     0.005394
PD3563   PD        0.329132    0.274122    0.715177     0.005394
PD3564   PD        0.365096    0.243050    0.715122     0.005394
NI3565   NI        0.355530    0.285477    0.764206     0.004307
PD3566   PD        0.398964    0.242325    0.749462     0.005394
PD3567   PD        0.398485    0.276138    0.714888     0.005394
NI3568   NI        0.451205    0.237269    0.714414     0.004307
NI3569   NI        0.433396    0.245264    0.782890     0.004307
NI3570   NI        0.468905    0.244166    0.750654     0.004307
NI3571   NI        0.480873    0.281859    0.742495     0.004307
PD3572   PD        0.500258    0.241121    0.716976     0.005394
NI3573   NI        0.508167    0.268827    0.746415     0.004307
NI3574   NI        0.536187    0.245003    0.751237     0.004307
PD3575   PD        0.535103    0.281059    0.711587     0.005394
NI3576   NI        0.594068    0.259165    0.732279     0.004307
NI3577   NI        0.571178    0.249710    0.782117     0.004307
NI3578   NI        0.604819    0.267973    0.766723     0.004307
NI3579   NI        0.602517    0.286108    0.712504     0.004307
NI3580   NI        0.673858    0.246049    0.726167     0.004307
NI3581   NI        0.644658    0.271675    0.755083     0.004307
NI3582   NI        0.672268    0.282705    0.715972     0.004307
NI3583   NI        0.149408    0.320661    0.748204     0.004307
NI3584   NI        0.169248    0.308149    0.741507     0.004307
NI3585   NI        0.202989    0.345003    0.725631     0.004307
NI3586   NI        0.226828    0.304944    0.717124     0.004307
NI3587   NI        0.236832    0.354641    0.748869     0.004307
NI3588   NI        0.264342    0.318293    0.747318     0.004307
PD3589   PD        0.256011    0.337628    0.717328     0.005394
PD3590   PD        0.293709    0.307795    0.715750     0.005394
NI3591   NI        0.296510    0.332484    0.772795     0.004307
NI3592   NI        0.339201    0.316171    0.757835     0.004307
NI3593   NI        0.337333    0.364699    0.730247     0.004307
PD3594   PD        0.363294    0.306613    0.718388     0.005394
PD3595   PD        0.361305    0.346087    0.748679     0.005394
NI3596   NI        0.407852    0.304538    0.754042     0.004307
PD3597   PD        0.413139    0.339204    0.728698     0.005394
PD3598   PD        0.433456    0.310048    0.713765     0.005394
NI3599   NI        0.407991    0.349398    0.777889     0.004307
NI3600   NI        0.483017    0.308163    0.758863     0.004307
PD3601   PD        0.481055    0.345175    0.726579     0.005394
PD3602   PD        0.515376    0.310743    0.722963     0.005394
NI3603   NI        0.501081    0.346044    0.750607     0.004307
NI3604   NI        0.534240    0.285741    0.780053     0.004307
PD3605   PD        0.548416    0.346704    0.724389     0.005394
NI3606   NI        0.582302    0.311351    0.720273     0.004307
NI3607   NI        0.577200    0.335458    0.760061     0.004307
NI3608   NI        0.603303    0.317907    0.747166     0.004307
NI3609   NI        0.625004    0.376288    0.722646     0.004307
NI3610   NI        0.634211    0.318183    0.708068     0.004307
NI3611   NI        0.635942    0.352268    0.746458     0.004307
NI3612   NI        0.679137    0.300578    0.742975     0.004307
NI3613   NI        0.680322    0.341895    0.723481     0.004307
NI3614   NI        0.707018    0.315398    0.718251     0.004307
NI3615   NI        0.125383    0.416336    0.703707     0.004307
NI3616   NI        0.163833    0.375680    0.718556     0.004307
NI3617   NI        0.156365    0.414891    0.741029     0.004307
NI3618   NI        0.160844    0.374720    0.767143     0.004307
NI3619   NI        0.197553    0.408607    0.717311     0.004307
NI3620   NI        0.233681    0.378577    0.725773     0.004307
NI3621   NI        0.222180    0.421398    0.747598     0.004307
NI3622   NI        0.289951    0.380162    0.741968     0.004307
NI3623   NI        0.270286    0.411553    0.716712     0.004307
NI3624   NI        0.301727    0.382930    0.708595     0.004307
NI3625   NI        0.289923    0.423938    0.751597     0.004307
NI3626   NI        0.339971    0.389044    0.749940     0.004307
NI3627   NI        0.339441    0.420047    0.716426     0.004307
NI3628   NI        0.363525    0.387712    0.722888     0.004307
PD3629   PD        0.362451    0.423355    0.753635     0.005394
PD3630   PD        0.409410    0.386062    0.739876     0.005394
PD3631   PD        0.394528    0.427036    0.722399     0.005394
PD3632   PD        0.444644    0.374853    0.725737     0.005394
PD3633   PD        0.445758    0.408732    0.761649     0.005394
PD3634   PD        0.476813    0.389226    0.751083     0.005394
PD3635   PD        0.477687    0.409239    0.726132     0.005394
PD3636   PD        0.513927    0.380133    0.723592     0.005394
NI3637   NI        0.510655    0.425020    0.758512     0.004307
NI3638   NI        0.533038    0.372542    0.767236     0.004307
PD3639   PD        0.542482    0.425643    0.722379     0.005394
PD3640   PD        0.571683    0.388425    0.711641     0.005394
PD3641   PD        0.580066    0.420063    0.749711     0.005394
NI3642   NI        0.614657    0.392568    0.761000     0.004307
NI3643   NI        0.609472    0.408703    0.718022     0.004307
NI3644   NI        0.645260    0.370616    0.731845     0.004307
NI3645   NI        0.661242    0.430266    0.766820     0.004307
NI3646   NI        0.698039    0.375688    0.772048     0.004307
NI3647   NI        0.679149    0.406290    0.722726     0.004307
NI3648   NI        0.707449    0.382819    0.716355     0.004307
NI3649   NI        0.723909    0.410042    0.761288     0.004307
NI3650   NI        0.752878    0.401155    0.720248     0.004307
NI3651   NI        0.121467    0.493798    0.716472     0.004307
NI3652   NI        0.166629    0.461738    0.734830     0.004307
NI3653   NI        0.167679    0.486153    0.736910     0.004307
NI3654   NI        0.202347    0.486118    0.780365     0.004307
NI3655   NI        0.190077    0.485761    0.711241     0.004307
NI3656   NI        0.245345    0.459770    0.730224     0.004307
NI3657   NI        0.241567    0.495045    0.748863     0.004307
NI3658   NI        0.268712    0.461592    0.728612     0.004307
PD3659   PD        0.272176    0.492735    0.709714     0.005394
NI3660   NI        0.290704    0.454600    0.718271     0.004307
PD3661   PD        0.302876    0.488598    0.747488     0.005394
NI3662   NI        0.327667    0.446703    0.750839     0.004307
PD3663   PD        0.337626    0.491443    0.713772     0.005394
PD3664   PD        0.360462    0.457792    0.722000     0.005394
PD3665   PD        0.366731    0.494020    0.751716     0.005394
NI3666   NI        0.386781    0.458074    0.775293     0.004307
PD3667   PD        0.393724    0.489768    0.711157     0.005394
PD3668   PD        0.429184    0.456910    0.716492     0.005394
NI3669   NI        0.408292    0.468138    0.752029     0.004307
NI3670   NI        0.475852    0.435099    0.746400     0.004307
PD3671   PD        0.480581    0.491530    0.716233     0.005394
PD3672   PD        0.511113    0.455002    0.709106     0.005394
PD3673   PD        0.513439    0.489316    0.752916     0.005394
NI3674   NI        0.542463    0.442481    0.767808     0.004307
NI3675   NI        0.534493    0.488618    0.719190     0.004307
PD3676   PD        0.580604    0.454960    0.716889     0.005394
NI3677   NI        0.596855    0.477292    0.765962     0.004307
NI3678   NI        0.626122    0.433688    0.739140     0.004307
PD3679   PD        0.611903    0.489109    0.718585     0.005394
NI3680   NI        0.642151    0.469573    0.716920     0.004307
NI3681   NI        0.643826    0.472977    0.765371     0.004307
NI3682   NI        0.682929    0.455417    0.752510     0.004307
NI3683   NI        0.685208    0.491981    0.721965     0.004307
NI3684   NI        0.706782    0.449691    0.709137     0.004307
NI3685   NI        0.743919    0.494257    0.771078     0.004307
NI3686   NI        0.746679    0.486404    0.711409     0.004307
NI3687   NI        0.158873    0.523361    0.715217     0.004307
NI3688   NI        0.201256    0.519737    0.746122     0.004307
NI3689   NI        0.176171    0.540824    0.724031     0.004307
NI3690   NI        0.222838    0.521856    0.716138     0.004307
NI3691   NI        0.220951    0.525375    0.759557     0.004307
NI3692   NI        0.260579    0.516659    0.745245     0.004307
NI3693   NI        0.268587    0.559969    0.712949     0.004307
NI3694   NI        0.292192    0.526061    0.717818     0.004307
NI3695   NI        0.311841    0.573033    0.768449     0.004307
PD3696   PD        0.331872    0.524749    0.744640     0.005394
PD3697   PD        0.331065    0.553868    0.705519     0.005394
PD3698   PD        0.367707    0.529107    0.715918     0.005394
NI3699   NI        0.372681    0.559965    0.750125     0.004307
NI3700   NI        0.402138    0.526668    0.746946     0.004307
PD3701   PD        0.405964    0.557673    0.709438     0.005394
PD3702   PD        0.434943    0.501293    0.726329     0.005394
NI3703   NI        0.439797    0.589424    0.785372     0.004307
NI3704   NI        0.476264    0.513923    0.769726     0.004307
NI3705   NI        0.463395    0.550396    0.741295     0.004307
PD3706   PD        0.511894    0.527614    0.721031     0.005394
NI3707   NI        0.497987    0.555801    0.746124     0.004307
PD3708   PD        0.545803    0.523848    0.752495     0.005394
PD3709   PD        0.545780    0.561225    0.721621     0.005394
PD3710   PD        0.581091    0.525954    0.720498     0.005394
PD3711   PD        0.580173    0.558050    0.754441     0.005394
PD3712   PD        0.614539    0.522898    0.753982     0.005394
PD3713   PD        0.616592    0.559185    0.720458     0.005394
NI3714   NI        0.662721    0.511728    0.725621     0.004307
NI3715   NI        0.649937    0.557822    0.754930     0.004307
NI3716   NI        0.657702    0.518936    0.757690     0.004307
NI3717   NI        0.683761    0.559717    0.720878     0.004307
NI3718   NI        0.715144    0.522411    0.715998     0.004307
NI3719   NI        0.166338    0.591951    0.714867     0.004307
NI3720   NI        0.199978    0.593895    0.749579     0.004307
NI3721   NI        0.185818    0.638309    0.741140     0.004307
NI3722   NI        0.241495    0.587089    0.711497     0.004307
NI3723   NI        0.234192    0.625548    0.744896     0.004307
NI3724   NI        0.263698    0.587748    0.748968     0.004307
PD3725   PD        0.268831    0.626156    0.712115     0.005394
NI3726   NI        0.290540    0.609170    0.723258     0.004307
NI3727   NI        0.295641    0.609572    0.771132     0.004307
NI3728   NI        0.335388    0.594004    0.749009     0.004307
NI3729   NI        0.309056    0.646663    0.698804     0.004307
PD3730   PD        0.375992    0.592898    0.723316     0.005394
NI3731   NI        0.386170    0.642755    0.765689     0.004307
NI3732   NI        0.408942    0.591513    0.751286     0.004307
PD3733   PD        0.406828    0.627014    0.719240     0.005394
NI3734   NI        0.445173    0.578868    0.721958     0.004307
NI3735   NI        0.442975    0.630897    0.754635     0.004307
PD3736   PD        0.475733    0.595444    0.755233     0.005394
NI3737   NI        0.481047    0.630302    0.721814     0.004307
PD3738   PD        0.513407    0.594921    0.721998     0.005394
NI3739   NI        0.503976    0.608976    0.741669     0.004307
PD3740   PD        0.547988    0.593342    0.755707     0.005394
PD3741   PD        0.548586    0.629296    0.721596     0.005394
PD3742   PD        0.580952    0.594581    0.721244     0.005394
PD3743   PD        0.580863    0.627176    0.757246     0.005394
NI3744   NI        0.600010    0.558269    0.753803     0.004307
NI3745   NI        0.627438    0.630211    0.745013     0.004307
PD3746   PD        0.649839    0.594080    0.723728     0.005394
NI3747   NI        0.624893    0.605926    0.763754     0.004307
NI3748   NI        0.671439    0.599155    0.747753     0.004307
NI3749   NI        0.687029    0.596999    0.749809     0.004307
NI3750   NI        0.717987    0.594339    0.721460     0.004307
NI3751   NI        0.228192    0.670249    0.750344     0.004307
NI3752   NI        0.240086    0.656189    0.757658     0.004307
NI3753   NI        0.235432    0.728862    0.714517     0.004307
NI3754   NI        0.286607    0.651100    0.747083     0.004307
NI3755   NI        0.310919    0.695623    0.764622     0.004307
NI3756   NI        0.334640    0.659941    0.747593     0.004307
NI3757   NI        0.334291    0.698149    0.711599     0.004307
PD3758   PD        0.370025    0.660507    0.713778     0.005394
NI3759   NI        0.372674    0.727591    0.792146     0.004307
NI3760   NI        0.392099    0.657143    0.750639     0.004307
NI3761   NI        0.407347    0.697213    0.723140     0.004307
NI3762   NI        0.441754    0.661545    0.720955     0.004307
NI3763   NI        0.437783    0.718843    0.780449     0.004307
NI3764   NI        0.476830    0.663608    0.756805     0.004307
PD3765   PD        0.476869    0.696492    0.724712     0.005394
PD3766   PD        0.513870    0.663824    0.724608     0.005394
NI3767   NI        0.512646    0.695421    0.758932     0.004307
NI3768   NI        0.541760    0.673199    0.737809     0.004307
PD3769   PD        0.546474    0.697047    0.724226     0.005394
PD3770   PD        0.580862    0.663297    0.722384     0.005394
NI3771   NI        0.582416    0.699174    0.733614     0.004307
NI3772   NI        0.614988    0.660830    0.756587     0.004307
NI3773   NI        0.614927    0.696890    0.723409     0.004307
NI3774   NI        0.639813    0.677820    0.748379     0.004307
NI3775   NI        0.284022    0.733655    0.698688     0.004307
NI3776   NI        0.368633    0.730179    0.717115     0.004307
NI3777   NI        0.401156    0.701184    0.759110     0.004307
NI3778   NI        0.404789    0.761310    0.722433     0.004307
NI3779   NI        0.442478    0.724755    0.711766     0.004307
NI3780   NI        0.476447    0.730466    0.759042     0.004307
NI3781   NI        0.475027    0.764937    0.724293     0.004307
NI3782   NI        0.508994    0.731446    0.724784     0.004307
NI3783   NI        0.582157    0.730875    0.725313     0.004307
NI3784   NI        0.397249    0.210569    0.785962     0.004307
NI3785   NI        0.467594    0.208992    0.785032     0.004307
NI3786   NI        0.267357    0.284385    0.782872     0.004307
NI3787   NI        0.338569    0.274246    0.807300     0.004307
NI3788   NI        0.365723    0.242083    0.784235     0.004307
NI3789   NI        0.359093    0.260472    0.845234     0.004307
NI3790   NI        0.400106    0.277650    0.783369     0.004307
NI3791   NI        0.437245    0.233701    0.776480     0.004307
NI3792   NI        0.441833    0.263724    0.815938     0.004307
NI3793   NI        0.464003    0.276234    0.786976     0.004307
NI3794   NI        0.511901    0.224947    0.787796     0.004307
NI3795   NI        0.501761    0.284309    0.816490     0.004307
NI3796   NI        0.543736    0.289443    0.791905     0.004307
NI3797   NI        0.605320    0.285077    0.780596     0.004307
NI3798   NI        0.265566    0.350762    0.781910     0.004307
NI3799   NI        0.287116    0.309244    0.800558     0.004307
NI3800   NI        0.305159    0.351847    0.814791     0.004307
NI3801   NI        0.325681    0.314160    0.837130     0.004307
NI3802   NI        0.313705    0.350348    0.779015     0.004307
NI3803   NI        0.380251    0.296932    0.774921     0.004307
NI3804   NI        0.342792    0.352979    0.845705     0.004307
NI3805   NI        0.404834    0.317940    0.810559     0.004307
NI3806   NI        0.407265    0.336591    0.786351     0.004307
NI3807   NI        0.426147    0.304510    0.797529     0.004307
NI3808   NI        0.434196    0.355467    0.812981     0.004307
NI3809   NI        0.467719    0.311579    0.820462     0.004307
NI3810   NI        0.457380    0.339084    0.790319     0.004307
NI3811   NI        0.503887    0.322031    0.792809     0.004307
NI3812   NI        0.522489    0.346783    0.849930     0.004307
NI3813   NI        0.535626    0.318634    0.813059     0.004307
NI3814   NI        0.537664    0.351857    0.778612     0.004307
NI3815   NI        0.578741    0.302566    0.787750     0.004307
NI3816   NI        0.606688    0.345435    0.841360     0.004307
NI3817   NI        0.598598    0.342290    0.803710     0.004307
NI3818   NI        0.194974    0.399081    0.792022     0.004307
NI3819   NI        0.238924    0.389557    0.779091     0.004307
NI3820   NI        0.255335    0.377937    0.816351     0.004307
NI3821   NI        0.258525    0.411914    0.784461     0.004307
NI3822   NI        0.288913    0.391470    0.789149     0.004307
NI3823   NI        0.301916    0.417671    0.811828     0.004307
NI3824   NI        0.349138    0.380586    0.807387     0.004307
NI3825   NI        0.324424    0.413067    0.782439     0.004307
NI3826   NI        0.343036    0.403591    0.797205     0.004307
NI3827   NI        0.368222    0.423988    0.799458     0.004307
NI3828   NI        0.395774    0.384993    0.815958     0.004307
NI3829   NI        0.381983    0.425910    0.811468     0.004307
NI3830   NI        0.428842    0.378802    0.785563     0.004307
NI3831   NI        0.456022    0.418352    0.849558     0.004307
NI3832   NI        0.473920    0.413678    0.831153     0.004307
NI3833   NI        0.464073    0.421793    0.768420     0.004307
NI3834   NI        0.524131    0.362856    0.794588     0.004307
NI3835   NI        0.508316    0.424955    0.822755     0.004307
NI3836   NI        0.533978    0.386873    0.812959     0.004307
NI3837   NI        0.546156    0.420384    0.784496     0.004307
NI3838   NI        0.567158    0.377641    0.784907     0.004307
NI3839   NI        0.569638    0.399798    0.838822     0.004307
NI3840   NI        0.615744    0.384958    0.817956     0.004307
NI3841   NI        0.636333    0.431126    0.792311     0.004307
NI3842   NI        0.650568    0.386251    0.783608     0.004307
NI3843   NI        0.682145    0.419706    0.785955     0.004307
NI3844   NI        0.210724    0.478841    0.803495     0.004307
NI3845   NI        0.236227    0.454131    0.774819     0.004307
NI3846   NI        0.266785    0.452073    0.810978     0.004307
NI3847   NI        0.268370    0.491245    0.782753     0.004307
PD3848   PD        0.304620    0.456299    0.783955     0.005394
NI3849   NI        0.313642    0.480168    0.830004     0.004307
NI3850   NI        0.336838    0.449191    0.812948     0.004307
NI3851   NI        0.335973    0.490103    0.779933     0.004307
NI3852   NI        0.355201    0.443616    0.794286     0.004307
NI3853   NI        0.370012    0.466573    0.833110     0.004307
NI3854   NI        0.418790    0.448791    0.834054     0.004307
NI3855   NI        0.395812    0.465966    0.796279     0.004307
PD3856   PD        0.437448    0.455966    0.770208     0.005394
NI3857   NI        0.426412    0.471356    0.835559     0.004307
NI3858   NI        0.462626    0.451757    0.806297     0.004307
PD3859   PD        0.471673    0.489110    0.774366     0.005394
NI3860   NI        0.527966    0.447118    0.805496     0.004307
NI3861   NI        0.511449    0.488616    0.819768     0.004307
NI3862   NI        0.553378    0.439263    0.828285     0.004307
PD3863   PD        0.546442    0.488120    0.786463     0.005394
NI3864   NI        0.586758    0.437733    0.792930     0.004307
NI3865   NI        0.578876    0.489072    0.821374     0.004307
NI3866   NI        0.610891    0.451259    0.818593     0.004307
NI3867   NI        0.612928    0.486919    0.786701     0.004307
NI3868   NI        0.648747    0.454033    0.784769     0.004307
NI3869   NI        0.682151    0.487753    0.788443     0.004307
NI3870   NI        0.234422    0.525359    0.781378     0.004307
NI3871   NI        0.235718    0.511406    0.828156     0.004307
NI3872   NI        0.276532    0.556690    0.795669     0.004307
NI3873   NI        0.302445    0.522967    0.779559     0.004307
NI3874   NI        0.281113    0.563934    0.822518     0.004307
NI3875   NI        0.338866    0.527603    0.811314     0.004307
NI3876   NI        0.347943    0.554086    0.775871     0.004307
NI3877   NI        0.369050    0.507511    0.791805     0.004307
NI3878   NI        0.363769    0.549817    0.844040     0.004307
NI3879   NI        0.406396    0.521167    0.814773     0.004307
NI3880   NI        0.393571    0.564950    0.786819     0.004307
NI3881   NI        0.440627    0.524227    0.775939     0.004307
NI3882   NI        0.443334    0.554728    0.821132     0.004307
NI3883   NI        0.463597    0.517116    0.814119     0.004307
NI3884   NI        0.475399    0.555435    0.786613     0.004307
NI3885   NI        0.506191    0.505308    0.805841     0.004307
NI3886   NI        0.514087    0.560474    0.825203     0.004307
NI3887   NI        0.544700    0.522864    0.820807     0.004307
NI3888   NI        0.547336    0.557289    0.787837     0.004307
NI3889   NI        0.579438    0.523134    0.786459     0.004307
NI3890   NI        0.561962    0.557775    0.834929     0.004307
NI3891   NI        0.592852    0.524496    0.819535     0.004307
NI3892   NI        0.615027    0.557188    0.789650     0.004307
NI3893   NI        0.644966    0.554696    0.824902     0.004307
NI3894   NI        0.267739    0.622933    0.781670     0.004307
NI3895   NI        0.307597    0.601441    0.806992     0.004307
NI3896   NI        0.301409    0.593624    0.851313     0.004307
NI3897   NI        0.331732    0.617058    0.769853     0.004307
NI3898   NI        0.356558    0.591861    0.803441     0.004307
NI3899   NI        0.390738    0.596079    0.822651     0.004307
NI3900   NI        0.401702    0.570643    0.834305     0.004307
NI3901   NI        0.387245    0.650581    0.812260     0.004307
NI3902   NI        0.431451    0.615050    0.806468     0.004307
NI3903   NI        0.468832    0.625209    0.832242     0.004307
NI3904   NI        0.475597    0.589274    0.819106     0.004307
NI3905   NI        0.453393    0.630040    0.765431     0.004307
NI3906   NI        0.473531    0.595978    0.795002     0.004307
NI3907   NI        0.512336    0.624795    0.823632     0.004307
NI3908   NI        0.543073    0.590924    0.864283     0.004307
NI3909   NI        0.546507    0.627432    0.790990     0.004307
NI3910   NI        0.590254    0.603274    0.797086     0.004307
NI3911   NI        0.614421    0.628140    0.791230     0.004307
NI3912   NI        0.363520    0.681802    0.785204     0.004307
NI3913   NI        0.404097    0.694120    0.780174     0.004307
NI3914   NI        0.442248    0.660010    0.790418     0.004307
NI3915   NI        0.444150    0.700119    0.801010     0.004307
NI3916   NI        0.513827    0.661636    0.792079     0.004307
NI3917   NI        0.399024    0.411979    0.859002     0.004307
NI3918   NI        0.448854    0.390959    0.886761     0.004307
NI3919   NI        0.464527    0.416051    0.852005     0.004307
NI3920   NI        0.352977    0.436318    0.864490     0.004307
NI3921   NI        0.396962    0.459074    0.871227     0.004307
NI3922   NI        0.431632    0.449840    0.844820     0.004307
NI3923   NI        0.471448    0.479866    0.843132     0.004307
NI3924   NI        0.496173    0.435928    0.867738     0.004307
NI3925   NI        0.439227    0.513226    0.848615     0.004307
