data_00001
_audit_creation_method   'DISCUS'

_data_chemical_name_common 'Au.cell: lattice parameter from Pearson85'

_cell_length_a             53.0257
_cell_length_b             53.0257
_cell_length_c             57.1046
_cell_angle_alpha     90.0000
_cell_angle_beta      90.0000
_cell_angle_gamma     90.0000

_symmetry_space_group_name_H-M   'P1              '

loop_
_atom_site_label
_atom_site_symbol
_atom_site_fract_x
_atom_site_fract_y
_atom_site_fract_z
_atom_site_u_iso_or_equiv
AU1   AU        0.390056    0.274241    0.035306     0.007504
AU2   AU        0.464526    0.271452    0.037691     0.007504
AU3   AU        0.542868    0.271657    0.038615     0.007504
PD4   PD        0.310410    0.349630    0.042237     0.005394
PD5   PD        0.348976    0.311492    0.038392     0.005394
PD6   PD        0.387223    0.352457    0.037369     0.005394
PD7   PD        0.427130    0.311144    0.038814     0.005394
AU8   AU        0.466111    0.345496    0.039553     0.007504
AU9   AU        0.504610    0.310322    0.038433     0.007504
AU10   AU        0.540924    0.347619    0.039935     0.007504
PD11   PD        0.581722    0.308467    0.038501     0.005394
AU12   AU        0.615566    0.350641    0.041471     0.007504
AU13   AU        0.269766    0.389552    0.041959     0.007504
PD14   PD        0.309699    0.425840    0.039472     0.005394
PD15   PD        0.348745    0.389811    0.042373     0.005394
PD16   PD        0.388911    0.426396    0.040324     0.005394
PD17   PD        0.427234    0.387256    0.042692     0.005394
AU18   AU        0.427692    0.426742    0.006553     0.007504
PD19   PD        0.466376    0.387278    0.005972     0.005394
PD20   PD        0.463836    0.425068    0.040553     0.005394
AU21   AU        0.503566    0.387596    0.042332     0.007504
PD22   PD        0.503961    0.424575    0.006713     0.005394
PD23   PD        0.541108    0.426161    0.039101     0.005394
PD24   PD        0.580261    0.390252    0.040614     0.005394
AU25   AU        0.615931    0.427727    0.036878     0.007504
PD26   PD        0.656579    0.387585    0.040088     0.005394
PD27   PD        0.272284    0.462392    0.042449     0.005394
PD28   PD        0.310416    0.501266    0.042143     0.005394
PD29   PD        0.349018    0.463102    0.042322     0.005394
PD30   PD        0.387626    0.462933    0.004606     0.005394
AU31   AU        0.386222    0.499642    0.040148     0.007504
PD32   PD        0.426676    0.465230    0.040683     0.005394
PD33   PD        0.424644    0.500506    0.005227     0.005394
AU34   AU        0.468484    0.463752    0.004531     0.007504
PD35   PD        0.463999    0.503260    0.038560     0.005394
PD36   PD        0.503385    0.463376    0.040321     0.005394
AU37   AU        0.502007    0.505815    0.000714     0.007504
AU38   AU        0.539929    0.462828    0.002487     0.007504
AU39   AU        0.538003    0.504666    0.039889     0.007504
PD40   PD        0.579139    0.466831    0.040250     0.005394
PD41   PD        0.617998    0.505124    0.043806     0.005394
PD42   PD        0.654255    0.468307    0.042574     0.005394
PD43   PD        0.270122    0.544972    0.042360     0.005394
PD44   PD        0.310152    0.578558    0.043491     0.005394
AU45   AU        0.347265    0.539148    0.042273     0.007504
AU46   AU        0.385410    0.577144    0.042456     0.007504
PD47   PD        0.426654    0.540540    0.039193     0.005394
PD48   PD        0.462241    0.540580    0.002811     0.005394
PD49   PD        0.461363    0.579815    0.043313     0.005394
AU50   AU        0.498526    0.541960    0.038680     0.007504
PD51   PD        0.539614    0.579304    0.041511     0.005394
AU52   AU        0.578203    0.539826    0.038655     0.007504
PD53   PD        0.617079    0.578115    0.039529     0.005394
AU54   AU        0.659675    0.541085    0.039799     0.007504
PD55   PD        0.348600    0.616790    0.043289     0.005394
PD56   PD        0.385127    0.656009    0.043308     0.005394
PD57   PD        0.421891    0.615918    0.046164     0.005394
PD58   PD        0.464357    0.652912    0.042479     0.005394
PD59   PD        0.500090    0.615481    0.044347     0.005394
PD60   PD        0.539889    0.654720    0.044321     0.005394
PD61   PD        0.577377    0.615330    0.039704     0.005394
AU62   AU        0.309898    0.193015    0.107016     0.007504
AU63   AU        0.388123    0.196229    0.110684     0.007504
AU64   AU        0.425253    0.157044    0.107812     0.007504
PD65   PD        0.428229    0.200601    0.073942     0.005394
PD66   PD        0.464123    0.197794    0.107955     0.005394
AU67   AU        0.500361    0.156075    0.109055     0.007504
PD68   PD        0.504058    0.197218    0.076954     0.005394
PD69   PD        0.542103    0.195290    0.111315     0.005394
AU70   AU        0.616431    0.194671    0.111811     0.007504
PD71   PD        0.232871    0.278071    0.108173     0.005394
PD72   PD        0.273289    0.240021    0.106979     0.005394
PD73   PD        0.273380    0.278955    0.075431     0.005394
PD74   PD        0.308792    0.276504    0.109603     0.005394
AU75   AU        0.347382    0.235285    0.106218     0.007504
AU76   AU        0.348396    0.272671    0.071305     0.007504
AU77   AU        0.388200    0.234220    0.073413     0.007504
PD78   PD        0.385798    0.274955    0.106316     0.005394
AU79   AU        0.425127    0.236946    0.110120     0.007504
AU80   AU        0.426984    0.274019    0.074920     0.007504
PD81   PD        0.467518    0.234325    0.075921     0.005394
PD82   PD        0.465793    0.271716    0.112516     0.005394
PD83   PD        0.506380    0.235477    0.110229     0.005394
AU84   AU        0.504837    0.272897    0.075021     0.007504
AU85   AU        0.544546    0.235211    0.077318     0.007504
PD86   PD        0.543837    0.272801    0.111563     0.005394
PD87   PD        0.578996    0.232366    0.113937     0.005394
PD88   PD        0.581618    0.273033    0.074058     0.005394
AU89   AU        0.617139    0.272879    0.112020     0.007504
AU90   AU        0.653688    0.233985    0.111060     0.007504
PD91   PD        0.655021    0.274229    0.077433     0.005394
PD92   PD        0.690736    0.272130    0.111585     0.005394
PD93   PD        0.191447    0.313787    0.109556     0.005394
AU94   AU        0.233009    0.350423    0.110746     0.007504
PD95   PD        0.271686    0.314808    0.113030     0.005394
PD96   PD        0.273308    0.348126    0.076004     0.005394
PD97   PD        0.311055    0.313372    0.077592     0.005394
AU98   AU        0.310441    0.351867    0.112212     0.007504
PD99   PD        0.348289    0.313707    0.112071     0.005394
AU100   AU        0.350043    0.348434    0.074104     0.007504
PD101   PD        0.387394    0.312427    0.070003     0.005394
AU102   AU        0.388810    0.347614    0.111105     0.007504
PD103   PD        0.426899    0.310905    0.112343     0.005394
PD104   PD        0.426658    0.347937    0.075258     0.005394
PD105   PD        0.466150    0.310280    0.077121     0.005394
PD106   PD        0.463795    0.347506    0.109587     0.005394
PD107   PD        0.506993    0.310820    0.110133     0.005394
AU108   AU        0.504301    0.347849    0.076134     0.007504
AU109   AU        0.544140    0.311264    0.075152     0.007504
PD110   PD        0.544966    0.347085    0.112098     0.005394
PD111   PD        0.578902    0.310713    0.113650     0.005394
PD112   PD        0.580232    0.349308    0.076855     0.005394
AU113   AU        0.616219    0.310465    0.077356     0.007504
AU114   AU        0.615836    0.347275    0.113427     0.007504
PD115   PD        0.652033    0.309938    0.114295     0.005394
AU116   AU        0.653855    0.349243    0.077895     0.007504
AU117   AU        0.694399    0.345810    0.113071     0.007504
PD118   PD        0.730759    0.308295    0.114718     0.005394
PD119   PD        0.155644    0.430107    0.111495     0.005394
PD120   PD        0.192255    0.388412    0.111722     0.005394
PD121   PD        0.193891    0.429111    0.078609     0.005394
AU122   AU        0.230621    0.388987    0.076292     0.007504
AU123   AU        0.232097    0.425803    0.111661     0.007504
AU124   AU        0.271267    0.387600    0.110849     0.007504
PD125   PD        0.272274    0.425066    0.078876     0.005394
AU126   AU        0.310320    0.388506    0.077258     0.007504
PD127   PD        0.312060    0.426014    0.110476     0.005394
AU128   AU        0.350686    0.387367    0.111737     0.007504
PD129   PD        0.349893    0.426787    0.076953     0.005394
PD130   PD        0.387508    0.387137    0.075484     0.005394
AU131   AU        0.388594    0.426494    0.108846     0.007504
PD132   PD        0.424813    0.386553    0.108619     0.005394
AU133   AU        0.425115    0.426826    0.072854     0.007504
PD134   PD        0.466643    0.388997    0.075431     0.005394
AU135   AU        0.462256    0.426698    0.109308     0.007504
AU136   AU        0.502853    0.386539    0.109569     0.007504
PD137   PD        0.502508    0.428274    0.075106     0.005394
AU138   AU        0.541557    0.386352    0.074566     0.007504
AU139   AU        0.543767    0.425978    0.110475     0.007504
AU140   AU        0.581811    0.389849    0.112402     0.007504
PD141   PD        0.579984    0.429974    0.074395     0.005394
AU142   AU        0.616133    0.388836    0.075205     0.007504
AU143   AU        0.618622    0.427095    0.111839     0.007504
PD144   PD        0.654222    0.387282    0.112542     0.005394
AU145   AU        0.656343    0.426958    0.072959     0.007504
PD146   PD        0.692920    0.385341    0.079337     0.005394
AU147   AU        0.691844    0.424902    0.111023     0.007504
PD148   PD        0.729228    0.385210    0.116453     0.005394
AU149   AU        0.730826    0.421932    0.077493     0.007504
PD150   PD        0.765979    0.424582    0.115287     0.005394
AU151   AU        0.152568    0.502054    0.109140     0.007504
PD152   PD        0.194361    0.467307    0.110916     0.005394
PD153   PD        0.193358    0.505547    0.077327     0.005394
AU154   AU        0.232141    0.466846    0.075680     0.007504
AU155   AU        0.231844    0.505228    0.112840     0.007504
AU156   AU        0.271294    0.464842    0.113756     0.007504
AU157   AU        0.272272    0.504605    0.075621     0.007504
AU158   AU        0.311018    0.462219    0.076826     0.007504
AU159   AU        0.309480    0.504062    0.112744     0.007504
PD160   PD        0.349055    0.463902    0.112362     0.005394
AU161   AU        0.347400    0.502716    0.078449     0.007504
PD162   PD        0.385267    0.463621    0.078115     0.005394
AU163   AU        0.387831    0.500767    0.111724     0.007504
PD164   PD        0.427478    0.464883    0.110944     0.005394
AU165   AU        0.423242    0.503181    0.075609     0.007504
AU166   AU        0.465033    0.465323    0.075436     0.007504
PD167   PD        0.461616    0.501697    0.111283     0.005394
AU168   AU        0.501130    0.464791    0.112632     0.007504
PD169   PD        0.502113    0.504745    0.074378     0.005394
AU170   AU        0.540413    0.465595    0.075702     0.007504
AU171   AU        0.540578    0.504667    0.111432     0.007504
AU172   AU        0.579013    0.464344    0.110826     0.007504
PD173   PD        0.580175    0.502344    0.076766     0.005394
PD174   PD        0.618011    0.465153    0.077927     0.005394
PD175   PD        0.613691    0.503254    0.114576     0.005394
PD176   PD        0.655555    0.464418    0.111654     0.005394
PD177   PD        0.656135    0.503544    0.076836     0.005394
PD178   PD        0.692796    0.465728    0.076469     0.005394
AU179   AU        0.696074    0.503445    0.112662     0.007504
AU180   AU        0.730721    0.463077    0.113145     0.007504
AU181   AU        0.732434    0.503560    0.077827     0.007504
PD182   PD        0.768157    0.501852    0.116267     0.005394
PD183   PD        0.192580    0.542407    0.111715     0.005394
AU184   AU        0.231286    0.542835    0.076629     0.007504
PD185   PD        0.234574    0.583910    0.111642     0.005394
PD186   PD        0.268428    0.542133    0.111253     0.005394
PD187   PD        0.273514    0.580273    0.079036     0.005394
PD188   PD        0.312888    0.541001    0.078482     0.005394
PD189   PD        0.308088    0.578113    0.112284     0.005394
AU190   AU        0.349143    0.539806    0.111364     0.007504
PD191   PD        0.349091    0.581148    0.076387     0.005394
PD192   PD        0.386317    0.540505    0.076194     0.005394
AU193   AU        0.385692    0.578045    0.114161     0.007504
AU194   AU        0.424113    0.539939    0.111722     0.007504
PD195   PD        0.424642    0.575601    0.075826     0.005394
AU196   AU        0.463793    0.539722    0.075275     0.007504
PD197   PD        0.462976    0.578031    0.111756     0.005394
PD198   PD        0.499877    0.539569    0.111343     0.005394
PD199   PD        0.501390    0.577970    0.077597     0.005394
PD200   PD        0.540236    0.541442    0.076845     0.005394
AU201   AU        0.542433    0.579001    0.113535     0.007504
PD202   PD        0.581688    0.541928    0.113740     0.005394
AU203   AU        0.579132    0.577932    0.074941     0.007504
AU204   AU        0.618607    0.542144    0.077738     0.007504
PD205   PD        0.615270    0.579067    0.112598     0.005394
AU206   AU        0.655165    0.539322    0.110626     0.007504
AU207   AU        0.657277    0.581827    0.073784     0.007504
PD208   PD        0.693122    0.542000    0.077967     0.005394
PD209   PD        0.696698    0.577220    0.114332     0.005394
PD210   PD        0.733797    0.540630    0.114254     0.005394
PD211   PD        0.193799    0.622160    0.110517     0.005394
AU212   AU        0.235807    0.656633    0.108017     0.007504
PD213   PD        0.271441    0.619068    0.111100     0.005394
AU214   AU        0.276103    0.657311    0.075652     0.007504
PD215   PD        0.309960    0.616926    0.077481     0.005394
PD216   PD        0.311502    0.655303    0.112937     0.005394
AU217   AU        0.347882    0.616575    0.112192     0.007504
PD218   PD        0.346694    0.655844    0.076329     0.005394
PD219   PD        0.385348    0.618690    0.077781     0.005394
AU220   AU        0.387815    0.656898    0.113720     0.007504
PD221   PD        0.425380    0.616916    0.112264     0.005394
AU222   AU        0.424818    0.655675    0.076890     0.007504
PD223   PD        0.463509    0.615853    0.077806     0.005394
PD224   PD        0.464126    0.653707    0.110044     0.005394
AU225   AU        0.502712    0.616721    0.110575     0.007504
PD226   PD        0.503063    0.655554    0.076681     0.005394
PD227   PD        0.541288    0.614330    0.076301     0.005394
AU228   AU        0.543152    0.654996    0.114381     0.007504
PD229   PD        0.578696    0.616189    0.109483     0.005394
AU230   AU        0.577673    0.651679    0.075772     0.007504
PD231   PD        0.615915    0.615448    0.074436     0.005394
AU232   AU        0.619007    0.649756    0.112378     0.007504
PD233   PD        0.657078    0.611577    0.115486     0.005394
PD234   PD        0.656076    0.651286    0.080690     0.005394
AU235   AU        0.696456    0.650728    0.114027     0.007504
PD236   PD        0.735497    0.613338    0.114888     0.005394
PD237   PD        0.277268    0.695741    0.109684     0.005394
PD238   PD        0.310543    0.734558    0.113614     0.005394
PD239   PD        0.348851    0.696193    0.113768     0.005394
AU240   AU        0.386811    0.693983    0.077222     0.007504
PD241   PD        0.389926    0.731915    0.111461     0.005394
PD242   PD        0.426572    0.693943    0.113467     0.005394
PD243   PD        0.426353    0.731592    0.077621     0.005394
PD244   PD        0.463349    0.692148    0.077048     0.005394
PD245   PD        0.464887    0.732270    0.111322     0.005394
AU246   AU        0.502534    0.692866    0.110848     0.007504
AU247   AU        0.504356    0.732227    0.074051     0.007504
AU248   AU        0.544187    0.693453    0.075763     0.007504
AU249   AU        0.545115    0.735398    0.111122     0.007504
AU250   AU        0.582353    0.692478    0.113809     0.007504
PD251   PD        0.620363    0.731186    0.114696     0.005394
AU252   AU        0.660905    0.692502    0.114338     0.007504
PD253   PD        0.428343    0.770082    0.115417     0.005394
AU254   AU        0.505140    0.769564    0.112148     0.007504
PD255   PD        0.309861    0.122303    0.177663     0.005394
AU256   AU        0.385471    0.118491    0.178478     0.007504
PD257   PD        0.423496    0.078845    0.179278     0.005394
AU258   AU        0.425440    0.113537    0.145374     0.007504
PD259   PD        0.460806    0.121217    0.180005     0.005394
AU260   AU        0.496645    0.079626    0.179773     0.007504
PD261   PD        0.503595    0.120644    0.148891     0.005394
PD262   PD        0.539569    0.120063    0.181622     0.005394
AU263   AU        0.611990    0.115132    0.182312     0.007504
PD264   PD        0.233187    0.196895    0.176006     0.005394
AU265   AU        0.270172    0.157963    0.174475     0.007504
PD266   PD        0.272901    0.196375    0.143367     0.005394
PD267   PD        0.308654    0.157381    0.142603     0.005394
PD268   PD        0.309289    0.195472    0.177642     0.005394
PD269   PD        0.348162    0.157294    0.179359     0.005394
AU270   AU        0.349326    0.193853    0.143454     0.007504
AU271   AU        0.390866    0.155352    0.144103     0.007504
PD272   PD        0.387031    0.194303    0.178770     0.005394
PD273   PD        0.426556    0.158727    0.184303     0.005394
PD274   PD        0.425943    0.196877    0.143004     0.005394
PD275   PD        0.462382    0.158300    0.146080     0.005394
PD276   PD        0.461436    0.195694    0.184813     0.005394
PD277   PD        0.499292    0.157408    0.180349     0.005394
AU278   AU        0.500587    0.195598    0.143986     0.007504
AU279   AU        0.541376    0.154537    0.143546     0.007504
PD280   PD        0.537774    0.192212    0.181176     0.005394
AU281   AU        0.575409    0.157937    0.183303     0.007504
PD282   PD        0.580198    0.193235    0.148000     0.005394
AU283   AU        0.615318    0.154508    0.147313     0.007504
PD284   PD        0.619896    0.194041    0.182866     0.005394
AU285   AU        0.656461    0.152765    0.181930     0.007504
AU286   AU        0.655839    0.193875    0.147763     0.007504
AU287   AU        0.695325    0.195723    0.184127     0.007504
PD288   PD        0.154937    0.274482    0.178696     0.005394
AU289   AU        0.192948    0.235371    0.175667     0.007504
PD290   PD        0.195187    0.274496    0.143730     0.005394
AU291   AU        0.230642    0.237183    0.140545     0.007504
AU292   AU        0.233210    0.272459    0.180328     0.007504
PD293   PD        0.270984    0.232295    0.175945     0.005394
AU294   AU        0.269750    0.273103    0.143805     0.007504
PD295   PD        0.309617    0.233542    0.140261     0.005394
AU296   AU        0.306358    0.273209    0.178896     0.007504
AU297   AU        0.346858    0.233278    0.177407     0.007504
PD298   PD        0.346844    0.275628    0.144602     0.005394
AU299   AU        0.386616    0.234118    0.145491     0.007504
AU300   AU        0.386803    0.271979    0.182124     0.007504
PD301   PD        0.424846    0.232697    0.181975     0.005394
PD302   PD        0.424819    0.272985    0.147135     0.005394
AU303   AU        0.463964    0.233519    0.145760     0.007504
AU304   AU        0.462453    0.271748    0.181829     0.007504
PD305   PD        0.500131    0.231349    0.181897     0.005394
PD306   PD        0.503501    0.271239    0.146951     0.005394
AU307   AU        0.541711    0.231957    0.147559     0.007504
AU308   AU        0.542426    0.270600    0.183760     0.007504
PD309   PD        0.579220    0.228620    0.181745     0.005394
AU310   AU        0.579614    0.270667    0.148774     0.007504
PD311   PD        0.618411    0.232643    0.148715     0.005394
PD312   PD        0.616017    0.270489    0.184876     0.005394
PD313   PD        0.655016    0.231283    0.185788     0.005394
PD314   PD        0.654576    0.270731    0.150870     0.005394
AU315   AU        0.691274    0.233274    0.149066     0.007504
AU316   AU        0.695273    0.271067    0.183205     0.007504
PD317   PD        0.734783    0.230071    0.181406     0.005394
AU318   AU        0.734260    0.269184    0.147318     0.007504
PD319   PD        0.770385    0.269306    0.185179     0.005394
AU320   AU        0.115994    0.312511    0.179024     0.007504
PD321   PD        0.155755    0.312651    0.143604     0.005394
PD322   PD        0.156088    0.348688    0.177959     0.005394
AU323   AU        0.194594    0.310971    0.180163     0.007504
AU324   AU        0.194146    0.349945    0.144730     0.007504
AU325   AU        0.233074    0.311795    0.146977     0.007504
PD326   PD        0.234585    0.351475    0.179971     0.005394
PD327   PD        0.271574    0.311889    0.179873     0.005394
AU328   AU        0.271865    0.349727    0.145784     0.007504
PD329   PD        0.310766    0.312881    0.143666     0.005394
PD330   PD        0.308418    0.350258    0.179813     0.005394
AU331   AU        0.343277    0.312916    0.180656     0.007504
PD332   PD        0.349992    0.352055    0.146688     0.005394
PD333   PD        0.386604    0.307760    0.145496     0.005394
AU334   AU        0.387002    0.347228    0.179628     0.007504
AU335   AU        0.424653    0.310259    0.179656     0.007504
AU336   AU        0.427453    0.348863    0.144716     0.007504
AU337   AU        0.461795    0.309086    0.145690     0.007504
PD338   PD        0.464164    0.348365    0.181288     0.005394
AU339   AU        0.501062    0.307965    0.182273     0.007504
AU340   AU        0.503405    0.351163    0.144849     0.007504
AU341   AU        0.539759    0.310512    0.148200     0.007504
PD342   PD        0.539274    0.349264    0.181670     0.005394
PD343   PD        0.578889    0.306587    0.181844     0.005394
PD344   PD        0.577505    0.345139    0.150096     0.005394
PD345   PD        0.618072    0.308633    0.149274     0.005394
AU346   AU        0.616258    0.345231    0.181821     0.007504
PD347   PD        0.655274    0.308546    0.185217     0.005394
PD348   PD        0.656979    0.348102    0.146315     0.005394
PD349   PD        0.692398    0.307329    0.147491     0.005394
AU350   AU        0.691788    0.346405    0.182389     0.007504
AU351   AU        0.732299    0.307854    0.183891     0.007504
PD352   PD        0.730821    0.345299    0.149419     0.005394
AU353   AU        0.772865    0.309832    0.149123     0.007504
PD354   PD        0.765845    0.350052    0.185902     0.005394
PD355   PD        0.809216    0.312950    0.186636     0.005394
AU356   AU        0.076407    0.423717    0.180425     0.007504
AU357   AU        0.116268    0.388794    0.180304     0.007504
PD358   PD        0.118807    0.427729    0.146794     0.005394
AU359   AU        0.152673    0.388499    0.144420     0.007504
AU360   AU        0.155912    0.427111    0.181064     0.007504
AU361   AU        0.192125    0.387963    0.178962     0.007504
PD362   PD        0.194098    0.428302    0.143858     0.005394
PD363   PD        0.228437    0.389109    0.146948     0.005394
PD364   PD        0.229626    0.428193    0.183421     0.005394
PD365   PD        0.269364    0.389003    0.181073     0.005394
PD366   PD        0.270722    0.424941    0.146196     0.005394
PD367   PD        0.308584    0.390581    0.146774     0.005394
PD368   PD        0.309951    0.424949    0.180499     0.005394
PD369   PD        0.346565    0.386158    0.179714     0.005394
AU370   AU        0.348104    0.427240    0.146284     0.007504
AU371   AU        0.388191    0.388572    0.145979     0.007504
PD372   PD        0.384719    0.425684    0.180709     0.005394
AU373   AU        0.427131    0.386714    0.181038     0.007504
AU374   AU        0.427775    0.425461    0.145643     0.007504
AU375   AU        0.466831    0.387523    0.145661     0.007504
PD376   PD        0.463746    0.425303    0.183040     0.005394
AU377   AU        0.502297    0.387175    0.181441     0.007504
PD378   PD        0.501549    0.424647    0.144128     0.005394
AU379   AU        0.543436    0.386519    0.146535     0.007504
AU380   AU        0.540519    0.425788    0.180145     0.007504
AU381   AU        0.581352    0.385530    0.181463     0.007504
PD382   PD        0.579955    0.427571    0.147915     0.005394
AU383   AU        0.616834    0.386993    0.148475     0.007504
PD384   PD        0.618381    0.426131    0.182945     0.005394
PD385   PD        0.654716    0.385449    0.182738     0.005394
AU386   AU        0.653982    0.424708    0.148030     0.007504
PD387   PD        0.690664    0.385084    0.151043     0.005394
PD388   PD        0.690091    0.424940    0.183949     0.005394
AU389   AU        0.728504    0.385557    0.184261     0.007504
PD390   PD        0.728513    0.423088    0.149726     0.005394
PD391   PD        0.766529    0.382373    0.149679     0.005394
PD392   PD        0.764705    0.423376    0.182327     0.005394
AU393   AU        0.803479    0.384561    0.184740     0.007504
PD394   PD        0.803092    0.422527    0.149904     0.005394
PD395   PD        0.842852    0.422297    0.186043     0.005394
PD396   PD        0.078771    0.501555    0.183139     0.005394
PD397   PD        0.115337    0.464920    0.182656     0.005394
PD398   PD        0.114152    0.502201    0.148012     0.005394
PD399   PD        0.154016    0.467732    0.145761     0.005394
PD400   PD        0.153929    0.502285    0.180900     0.005394
AU401   AU        0.193411    0.465009    0.181406     0.007504
AU402   AU        0.192004    0.504110    0.144816     0.007504
AU403   AU        0.233102    0.463427    0.147002     0.007504
AU404   AU        0.230850    0.503326    0.180193     0.007504
AU405   AU        0.272313    0.466194    0.181465     0.007504
PD406   PD        0.268864    0.503637    0.146235     0.005394
PD407   PD        0.308200    0.466865    0.146887     0.005394
AU408   AU        0.308521    0.502522    0.182140     0.007504
PD409   PD        0.348787    0.461440    0.182021     0.005394
PD410   PD        0.350751    0.500428    0.147176     0.005394
PD411   PD        0.386801    0.461918    0.146728     0.005394
PD412   PD        0.384280    0.498665    0.182440     0.005394
PD413   PD        0.423168    0.464127    0.181101     0.005394
AU414   AU        0.424914    0.500930    0.148081     0.007504
AU415   AU        0.465120    0.461108    0.145049     0.007504
PD416   PD        0.464240    0.499479    0.182217     0.005394
AU417   AU        0.503766    0.462936    0.181777     0.007504
AU418   AU        0.500541    0.504139    0.145440     0.007504
AU419   AU        0.541908    0.466350    0.144468     0.007504
PD420   PD        0.539298    0.503787    0.180823     0.005394
AU421   AU        0.577967    0.464313    0.181398     0.007504
PD422   PD        0.577867    0.503340    0.148487     0.005394
AU423   AU        0.618897    0.464700    0.146747     0.007504
AU424   AU        0.618623    0.500978    0.182884     0.007504
PD425   PD        0.654606    0.464195    0.185333     0.005394
PD426   PD        0.655192    0.503867    0.147135     0.005394
AU427   AU        0.692517    0.463199    0.148585     0.007504
PD428   PD        0.690865    0.500884    0.184350     0.005394
PD429   PD        0.728335    0.463967    0.186020     0.005394
PD430   PD        0.730094    0.502581    0.149024     0.005394
PD431   PD        0.765935    0.463415    0.150828     0.005394
AU432   AU        0.766910    0.499020    0.184453     0.007504
PD433   PD        0.804671    0.459373    0.186502     0.005394
AU434   AU        0.805773    0.497873    0.148091     0.007504
PD435   PD        0.842783    0.495139    0.188410     0.005394
PD436   PD        0.118550    0.537803    0.182198     0.005394
AU437   AU        0.154231    0.541546    0.145432     0.007504
AU438   AU        0.156398    0.579815    0.182012     0.007504
AU439   AU        0.192246    0.540129    0.181513     0.007504
AU440   AU        0.194213    0.583321    0.145780     0.007504
AU441   AU        0.230218    0.543989    0.145594     0.007504
PD442   PD        0.230291    0.580714    0.180199     0.005394
AU443   AU        0.268199    0.543639    0.181567     0.007504
AU444   AU        0.269070    0.580571    0.146771     0.007504
PD445   PD        0.307298    0.541892    0.146056     0.005394
PD446   PD        0.310225    0.578660    0.181172     0.005394
PD447   PD        0.347441    0.540778    0.179834     0.005394
PD448   PD        0.343474    0.579790    0.144504     0.005394
PD449   PD        0.384360    0.540652    0.145602     0.005394
AU450   AU        0.385409    0.579895    0.179488     0.007504
AU451   AU        0.423410    0.540971    0.183860     0.007504
AU452   AU        0.426863    0.577263    0.145235     0.007504
PD453   PD        0.462814    0.540667    0.147066     0.005394
AU454   AU        0.462526    0.578505    0.181689     0.007504
PD455   PD        0.499663    0.540599    0.183035     0.005394
AU456   AU        0.502468    0.576971    0.147207     0.007504
AU457   AU        0.539530    0.542316    0.146810     0.007504
AU458   AU        0.539150    0.576597    0.185907     0.007504
PD459   PD        0.579897    0.540431    0.186250     0.005394
PD460   PD        0.578168    0.577487    0.149337     0.005394
AU461   AU        0.615252    0.538693    0.149098     0.007504
PD462   PD        0.614763    0.576392    0.181604     0.005394
AU463   AU        0.657412    0.537995    0.184375     0.007504
AU464   AU        0.652520    0.574147    0.147758     0.007504
PD465   PD        0.693167    0.539349    0.149491     0.005394
AU466   AU        0.693968    0.576231    0.185267     0.007504
PD467   PD        0.731519    0.539380    0.186912     0.005394
PD468   PD        0.731729    0.574912    0.150041     0.005394
PD469   PD        0.770248    0.539601    0.151764     0.005394
PD470   PD        0.768433    0.575396    0.188179     0.005394
PD471   PD        0.805262    0.536208    0.188001     0.005394
AU472   AU        0.120605    0.619211    0.181578     0.007504
PD473   PD        0.160466    0.620409    0.147466     0.005394
PD474   PD        0.157272    0.659973    0.182024     0.005394
PD475   PD        0.194355    0.620586    0.181945     0.005394
AU476   AU        0.195764    0.659127    0.145404     0.007504
PD477   PD        0.233054    0.620153    0.147848     0.005394
AU478   AU        0.231609    0.658023    0.181249     0.007504
PD479   PD        0.271601    0.619333    0.179729     0.005394
AU480   AU        0.271253    0.657905    0.146966     0.007504
PD481   PD        0.308157    0.617684    0.146199     0.005394
PD482   PD        0.311342    0.657211    0.180976     0.005394
AU483   AU        0.347957    0.616029    0.180164     0.007504
AU484   AU        0.348721    0.656588    0.146815     0.007504
PD485   PD        0.384933    0.616892    0.146061     0.005394
PD486   PD        0.384873    0.654146    0.179729     0.005394
PD487   PD        0.422362    0.617027    0.181829     0.005394
PD488   PD        0.427702    0.654162    0.148521     0.005394
AU489   AU        0.465843    0.616390    0.144941     0.007504
PD490   PD        0.466193    0.654426    0.180279     0.005394
PD491   PD        0.505708    0.614635    0.181994     0.005394
AU492   AU        0.505197    0.655747    0.146516     0.007504
PD493   PD        0.543535    0.616796    0.148317     0.005394
AU494   AU        0.539805    0.654394    0.184531     0.007504
PD495   PD        0.578899    0.615162    0.186361     0.005394
PD496   PD        0.578625    0.654401    0.149767     0.005394
PD497   PD        0.614504    0.614463    0.148566     0.005394
AU498   AU        0.618821    0.652211    0.185500     0.007504
AU499   AU        0.654556    0.613054    0.186862     0.007504
PD500   PD        0.654712    0.648754    0.149626     0.005394
AU501   AU        0.694858    0.614177    0.149722     0.007504
PD502   PD        0.694933    0.653161    0.187821     0.005394
PD503   PD        0.732668    0.615434    0.185918     0.005394
AU504   AU        0.733955    0.654157    0.151078     0.007504
AU505   AU        0.770623    0.613786    0.152620     0.007504
AU506   AU        0.772214    0.652464    0.186516     0.007504
AU507   AU        0.807721    0.613348    0.189807     0.007504
AU508   AU        0.196989    0.696099    0.182397     0.007504
AU509   AU        0.234413    0.697239    0.141911     0.007504
AU510   AU        0.236014    0.734888    0.184649     0.007504
PD511   PD        0.272360    0.694403    0.179875     0.005394
AU512   AU        0.270595    0.735365    0.145974     0.007504
PD513   PD        0.311210    0.693632    0.147106     0.005394
PD514   PD        0.310883    0.733673    0.181662     0.005394
AU515   AU        0.348704    0.695913    0.181560     0.007504
PD516   PD        0.350450    0.734630    0.147414     0.005394
AU517   AU        0.388338    0.695156    0.147843     0.007504
PD518   PD        0.389501    0.732234    0.182068     0.005394
AU519   AU        0.425179    0.692958    0.180676     0.007504
PD520   PD        0.427788    0.735123    0.148149     0.005394
AU521   AU        0.464806    0.693281    0.146722     0.007504
AU522   AU        0.465971    0.731677    0.182248     0.007504
PD523   PD        0.502555    0.691138    0.183626     0.005394
AU524   AU        0.504500    0.732558    0.147470     0.007504
AU525   AU        0.541446    0.693592    0.149434     0.007504
PD526   PD        0.546001    0.732511    0.186131     0.005394
AU527   AU        0.580778    0.693245    0.183125     0.007504
PD528   PD        0.579842    0.734364    0.149729     0.005394
AU529   AU        0.620518    0.691802    0.148115     0.007504
PD530   PD        0.618442    0.729809    0.182423     0.005394
AU531   AU        0.657104    0.691190    0.186338     0.007504
PD532   PD        0.658834    0.728740    0.150036     0.005394
PD533   PD        0.695684    0.687927    0.152334     0.005394
PD534   PD        0.697127    0.729302    0.185858     0.005394
AU535   AU        0.736982    0.693129    0.186872     0.007504
PD536   PD        0.274364    0.770253    0.182669     0.005394
PD537   PD        0.312280    0.770939    0.147836     0.005394
PD538   PD        0.311864    0.807557    0.183059     0.005394
PD539   PD        0.351121    0.770409    0.183142     0.005394
PD540   PD        0.389888    0.769905    0.147408     0.005394
PD541   PD        0.389860    0.809336    0.181450     0.005394
PD542   PD        0.427006    0.770871    0.183211     0.005394
PD543   PD        0.429229    0.807065    0.149371     0.005394
PD544   PD        0.467131    0.770925    0.145856     0.005394
PD545   PD        0.465600    0.806319    0.183318     0.005394
PD546   PD        0.504838    0.771240    0.183852     0.005394
PD547   PD        0.506987    0.809405    0.149371     0.005394
PD548   PD        0.544209    0.772233    0.152059     0.005394
PD549   PD        0.541337    0.807602    0.183548     0.005394
PD550   PD        0.581171    0.771124    0.185028     0.005394
PD551   PD        0.618953    0.768530    0.149117     0.005394
AU552   AU        0.620226    0.806636    0.183677     0.007504
PD553   PD        0.657464    0.764247    0.184964     0.005394
PD554   PD        0.430444    0.847545    0.181607     0.005394
AU555   AU        0.504071    0.849455    0.184280     0.007504
PD556   PD        0.386934    0.040269    0.249248     0.005394
PD557   PD        0.461907    0.039172    0.256362     0.005394
AU558   AU        0.540631    0.042723    0.253167     0.007504
AU559   AU        0.232567    0.118316    0.248883     0.007504
AU560   AU        0.275105    0.079217    0.247462     0.007504
PD561   PD        0.272297    0.122385    0.215628     0.005394
PD562   PD        0.307308    0.122180    0.250300     0.005394
AU563   AU        0.346278    0.079324    0.248102     0.007504
AU564   AU        0.346216    0.120428    0.213517     0.007504
PD565   PD        0.384642    0.080566    0.212548     0.005394
PD566   PD        0.383559    0.118200    0.248672     0.005394
AU567   AU        0.424304    0.078294    0.252407     0.007504
AU568   AU        0.422233    0.117146    0.216038     0.007504
AU569   AU        0.460037    0.081441    0.215434     0.007504
PD570   PD        0.464119    0.116887    0.254105     0.005394
AU571   AU        0.500716    0.081206    0.252750     0.007504
AU572   AU        0.500272    0.116533    0.214528     0.007504
AU573   AU        0.539709    0.079707    0.213685     0.007504
AU574   AU        0.538920    0.117792    0.251698     0.007504
AU575   AU        0.581308    0.077711    0.249307     0.007504
PD576   PD        0.577595    0.121166    0.219185     0.005394
AU577   AU        0.618331    0.115855    0.253073     0.007504
AU578   AU        0.654828    0.079402    0.250234     0.007504
PD579   PD        0.652416    0.116791    0.216220     0.005394
PD580   PD        0.689846    0.118564    0.253385     0.005394
AU581   AU        0.155520    0.196431    0.251509     0.007504
PD582   PD        0.195468    0.158584    0.250102     0.005394
PD583   PD        0.195239    0.196128    0.215932     0.005394
PD584   PD        0.235006    0.157873    0.213136     0.005394
PD585   PD        0.234917    0.195319    0.247525     0.005394
PD586   PD        0.267978    0.158999    0.249704     0.005394
PD587   PD        0.270778    0.197722    0.211097     0.005394
PD588   PD        0.305270    0.159730    0.213126     0.005394
AU589   AU        0.308310    0.195231    0.249991     0.007504
AU590   AU        0.344926    0.156278    0.248290     0.007504
AU591   AU        0.347100    0.195434    0.213643     0.007504
PD592   PD        0.384398    0.157628    0.213740     0.005394
PD593   PD        0.383161    0.196427    0.251312     0.005394
PD594   PD        0.420953    0.155308    0.248682     0.005394
AU595   AU        0.424111    0.197236    0.217215     0.007504
AU596   AU        0.463280    0.155595    0.219285     0.007504
AU597   AU        0.463926    0.191884    0.253305     0.007504
PD598   PD        0.504491    0.156381    0.253356     0.005394
AU599   AU        0.501540    0.194939    0.216661     0.007504
PD600   PD        0.537764    0.156313    0.216828     0.005394
PD601   PD        0.540312    0.191515    0.252619     0.005394
PD602   PD        0.578792    0.154302    0.253187     0.005394
PD603   PD        0.577136    0.193666    0.218226     0.005394
AU604   AU        0.616239    0.156884    0.218774     0.007504
PD605   PD        0.615233    0.193258    0.255345     0.005394
PD606   PD        0.653005    0.157280    0.254130     0.005394
PD607   PD        0.654519    0.192897    0.220067     0.005394
PD608   PD        0.689729    0.156810    0.218518     0.005394
PD609   PD        0.691130    0.191051    0.254632     0.005394
PD610   PD        0.730281    0.155819    0.253393     0.005394
PD611   PD        0.730281    0.194994    0.221192     0.005394
AU612   AU        0.768785    0.192420    0.255227     0.007504
PD613   PD        0.081107    0.273723    0.250353     0.005394
AU614   AU        0.117164    0.233683    0.248375     0.007504
PD615   PD        0.119687    0.272657    0.214143     0.005394
PD616   PD        0.159495    0.234467    0.217263     0.005394
PD617   PD        0.157517    0.271403    0.249284     0.005394
PD618   PD        0.197506    0.232280    0.253035     0.005394
AU619   AU        0.193537    0.272970    0.215881     0.007504
PD620   PD        0.232285    0.233812    0.213597     0.005394
AU621   AU        0.230616    0.271512    0.250679     0.007504
AU622   AU        0.271038    0.232346    0.251407     0.007504
AU623   AU        0.270978    0.271822    0.217189     0.007504
PD624   PD        0.307331    0.232151    0.213753     0.005394
PD625   PD        0.310263    0.270707    0.249802     0.005394
PD626   PD        0.345978    0.234472    0.250919     0.005394
AU627   AU        0.346259    0.269110    0.215350     0.007504
PD628   PD        0.386504    0.230456    0.217612     0.005394
AU629   AU        0.385072    0.273607    0.250570     0.007504
PD630   PD        0.424428    0.230921    0.252408     0.005394
PD631   PD        0.424145    0.270905    0.217593     0.005394
AU632   AU        0.463982    0.233424    0.217860     0.007504
AU633   AU        0.462232    0.269890    0.252292     0.007504
PD634   PD        0.498098    0.231018    0.252758     0.005394
PD635   PD        0.499785    0.270933    0.218396     0.005394
AU636   AU        0.538839    0.231995    0.218256     0.007504
AU637   AU        0.537001    0.271777    0.253666     0.007504
AU638   AU        0.578767    0.234089    0.253400     0.007504
PD639   PD        0.578912    0.269642    0.220054     0.005394
AU640   AU        0.618577    0.231603    0.218240     0.007504
AU641   AU        0.616763    0.268849    0.254682     0.007504
AU642   AU        0.656600    0.231241    0.253618     0.007504
AU643   AU        0.656125    0.271438    0.220159     0.007504
AU644   AU        0.694255    0.234076    0.217768     0.007504
PD645   PD        0.692864    0.269817    0.256558     0.005394
PD646   PD        0.728100    0.231744    0.255427     0.005394
PD647   PD        0.732443    0.269291    0.222286     0.005394
PD648   PD        0.769642    0.231547    0.219534     0.005394
AU649   AU        0.768720    0.268125    0.257343     0.007504
AU650   AU        0.807097    0.230942    0.256953     0.007504
AU651   AU        0.809007    0.270921    0.220002     0.007504
PD652   PD        0.844243    0.269253    0.257696     0.005394
PD653   PD        0.079102    0.348253    0.250519     0.005394
PD654   PD        0.119460    0.309956    0.251015     0.005394
AU655   AU        0.116019    0.350962    0.216477     0.007504
AU656   AU        0.154868    0.311825    0.214342     0.007504
PD657   PD        0.157927    0.347471    0.250217     0.005394
PD658   PD        0.195626    0.309197    0.251796     0.005394
AU659   AU        0.193798    0.349829    0.215300     0.007504
AU660   AU        0.235020    0.311969    0.214698     0.007504
AU661   AU        0.231111    0.346862    0.250603     0.007504
AU662   AU        0.272666    0.308374    0.252998     0.007504
PD663   PD        0.272336    0.347500    0.213645     0.005394
PD664   PD        0.307857    0.310615    0.216168     0.005394
AU665   AU        0.308252    0.348336    0.252747     0.007504
AU666   AU        0.345520    0.307782    0.253303     0.007504
AU667   AU        0.348801    0.345572    0.217656     0.007504
AU668   AU        0.385381    0.309780    0.215468     0.007504
AU669   AU        0.383403    0.346571    0.252477     0.007504
PD670   PD        0.424035    0.310722    0.253448     0.005394
PD671   PD        0.423756    0.344901    0.217481     0.005394
AU672   AU        0.460236    0.309264    0.217496     0.007504
PD673   PD        0.457311    0.349945    0.253314     0.005394
AU674   AU        0.500481    0.307390    0.251957     0.007504
AU675   AU        0.499101    0.348528    0.218121     0.007504
AU676   AU        0.539073    0.311482    0.216795     0.007504
AU677   AU        0.539273    0.347441    0.254158     0.007504
AU678   AU        0.577038    0.308790    0.254428     0.007504
AU679   AU        0.578461    0.347790    0.218974     0.007504
AU680   AU        0.615877    0.308334    0.218411     0.007504
PD681   PD        0.616674    0.348198    0.255679     0.005394
AU682   AU        0.657466    0.307973    0.253764     0.007504
AU683   AU        0.654803    0.348274    0.218404     0.007504
AU684   AU        0.696445    0.307878    0.218980     0.007504
AU685   AU        0.693558    0.346784    0.254515     0.007504
PD686   PD        0.730360    0.306240    0.257076     0.005394
PD687   PD        0.730990    0.348004    0.220189     0.005394
AU688   AU        0.769638    0.307025    0.218104     0.007504
PD689   PD        0.768227    0.345540    0.254942     0.005394
PD690   PD        0.805033    0.307152    0.254895     0.005394
PD691   PD        0.804406    0.348062    0.222527     0.005394
PD692   PD        0.844655    0.343191    0.253346     0.005394
PD693   PD        0.042572    0.386640    0.252105     0.005394
PD694   PD        0.080269    0.389858    0.219344     0.005394
AU695   AU        0.081463    0.428036    0.254317     0.007504
PD696   PD        0.117905    0.387963    0.251237     0.005394
PD697   PD        0.116955    0.427937    0.215673     0.005394
PD698   PD        0.154165    0.386087    0.216701     0.005394
AU699   AU        0.156009    0.425455    0.253476     0.007504
AU700   AU        0.193728    0.386676    0.251335     0.007504
PD701   PD        0.190137    0.425007    0.216291     0.005394
AU702   AU        0.231489    0.387024    0.217373     0.007504
PD703   PD        0.230369    0.424077    0.252840     0.005394
PD704   PD        0.269059    0.383300    0.251809     0.005394
AU705   AU        0.271262    0.424735    0.219707     0.007504
AU706   AU        0.310089    0.386358    0.217644     0.007504
PD707   PD        0.308552    0.422025    0.252770     0.005394
AU708   AU        0.348158    0.385177    0.252215     0.007504
AU709   AU        0.347130    0.423673    0.217363     0.007504
AU710   AU        0.387482    0.387089    0.216475     0.007504
AU711   AU        0.385327    0.425361    0.250641     0.007504
PD712   PD        0.423619    0.387029    0.251313     0.005394
PD713   PD        0.424750    0.424181    0.218047     0.005394
AU714   AU        0.461249    0.387790    0.218129     0.007504
AU715   AU        0.460234    0.425709    0.255542     0.007504
AU716   AU        0.502727    0.384935    0.253437     0.007504
AU717   AU        0.503020    0.423746    0.217901     0.007504
AU718   AU        0.542335    0.386813    0.217215     0.007504
AU719   AU        0.540593    0.423680    0.255574     0.007504
AU720   AU        0.578519    0.385413    0.255140     0.007504
AU721   AU        0.579048    0.427893    0.218435     0.007504
PD722   PD        0.616378    0.385757    0.220348     0.005394
AU723   AU        0.616476    0.423542    0.256150     0.007504
AU724   AU        0.654171    0.384827    0.253329     0.007504
PD725   PD        0.654396    0.424793    0.219532     0.005394
AU726   AU        0.692751    0.384138    0.218361     0.007504
AU727   AU        0.690379    0.425483    0.254459     0.007504
PD728   PD        0.729111    0.385620    0.254543     0.005394
AU729   AU        0.729816    0.426241    0.219355     0.007504
PD730   PD        0.767552    0.385495    0.224386     0.005394
PD731   PD        0.766746    0.423471    0.256662     0.005394
AU732   AU        0.806817    0.382794    0.257453     0.007504
AU733   AU        0.804864    0.423415    0.221985     0.007504
PD734   PD        0.840994    0.385806    0.220688     0.005394
AU735   AU        0.843132    0.421744    0.258812     0.007504
PD736   PD        0.884266    0.385702    0.252082     0.005394
PD737   PD        0.044067    0.466841    0.252932     0.005394
PD738   PD        0.077455    0.464449    0.216491     0.005394
PD739   PD        0.082242    0.503833    0.253898     0.005394
PD740   PD        0.116241    0.464972    0.253889     0.005394
PD741   PD        0.116106    0.501830    0.218195     0.005394
AU742   AU        0.153572    0.462515    0.220190     0.007504
AU743   AU        0.154924    0.502374    0.254874     0.007504
PD744   PD        0.194557    0.461710    0.251416     0.005394
AU745   AU        0.191632    0.502466    0.216366     0.007504
AU746   AU        0.231591    0.465952    0.214155     0.007504
AU747   AU        0.230622    0.501445    0.251578     0.007504
PD748   PD        0.270983    0.464272    0.251154     0.005394
AU749   AU        0.271450    0.502628    0.217373     0.007504
AU750   AU        0.308526    0.464224    0.216632     0.007504
AU751   AU        0.311246    0.501404    0.251207     0.007504
PD752   PD        0.346924    0.462951    0.250605     0.005394
AU753   AU        0.346688    0.500536    0.214427     0.007504
AU754   AU        0.385900    0.465025    0.217373     0.007504
PD755   PD        0.383508    0.501633    0.253295     0.005394
AU756   AU        0.421223    0.465015    0.253922     0.007504
AU757   AU        0.423535    0.499350    0.215515     0.007504
AU758   AU        0.463155    0.462534    0.215328     0.007504
AU759   AU        0.461273    0.502494    0.252827     0.007504
AU760   AU        0.499879    0.462521    0.254250     0.007504
AU761   AU        0.502584    0.501315    0.217648     0.007504
AU762   AU        0.538953    0.463659    0.219521     0.007504
AU763   AU        0.540794    0.501280    0.254782     0.007504
AU764   AU        0.579723    0.465062    0.255092     0.007504
AU765   AU        0.578286    0.502947    0.219104     0.007504
AU766   AU        0.617701    0.464518    0.218499     0.007504
AU767   AU        0.614573    0.504340    0.254939     0.007504
AU768   AU        0.652979    0.462261    0.254858     0.007504
PD769   PD        0.654281    0.502603    0.220967     0.005394
PD770   PD        0.690623    0.465129    0.220042     0.005394
PD771   PD        0.691868    0.499654    0.256705     0.005394
AU772   AU        0.729804    0.461591    0.255909     0.007504
AU773   AU        0.731083    0.500344    0.220862     0.007504
PD774   PD        0.766325    0.460569    0.221791     0.005394
PD775   PD        0.768638    0.499599    0.255744     0.005394
PD776   PD        0.807044    0.461516    0.258243     0.005394
PD777   PD        0.806236    0.498742    0.222656     0.005394
PD778   PD        0.845871    0.457900    0.220077     0.005394
AU779   AU        0.845113    0.498513    0.256605     0.007504
AU780   AU        0.882764    0.460091    0.256339     0.007504
PD781   PD        0.042503    0.540442    0.252130     0.005394
PD782   PD        0.079267    0.542064    0.218179     0.005394
PD783   PD        0.080122    0.579478    0.252601     0.005394
PD784   PD        0.119186    0.540127    0.251411     0.005394
PD785   PD        0.117090    0.579326    0.217231     0.005394
PD786   PD        0.153944    0.538204    0.217399     0.005394
AU787   AU        0.157290    0.582323    0.251313     0.007504
AU788   AU        0.190896    0.540806    0.250759     0.007504
PD789   PD        0.192768    0.579168    0.216185     0.005394
AU790   AU        0.230369    0.540878    0.217645     0.007504
AU791   AU        0.229347    0.577444    0.254586     0.007504
PD792   PD        0.270225    0.539956    0.251009     0.005394
PD793   PD        0.268952    0.582526    0.215562     0.005394
PD794   PD        0.308345    0.542977    0.214171     0.005394
AU795   AU        0.306004    0.577274    0.250934     0.007504
AU796   AU        0.345487    0.540673    0.251122     0.007504
AU797   AU        0.345583    0.579025    0.217688     0.007504
AU798   AU        0.383051    0.539714    0.216465     0.007504
AU799   AU        0.385199    0.577304    0.252342     0.007504
AU800   AU        0.423250    0.538296    0.251107     0.007504
PD801   PD        0.423436    0.580037    0.216164     0.005394
AU802   AU        0.460557    0.537904    0.216575     0.007504
PD803   PD        0.461594    0.577736    0.250991     0.005394
AU804   AU        0.504808    0.540478    0.255231     0.007504
AU805   AU        0.503242    0.578652    0.219361     0.007504
AU806   AU        0.541216    0.537987    0.220103     0.007504
PD807   PD        0.542131    0.580157    0.255181     0.005394
PD808   PD        0.576357    0.541750    0.257251     0.005394
PD809   PD        0.578429    0.576149    0.220717     0.005394
AU810   AU        0.616672    0.539302    0.220050     0.007504
AU811   AU        0.618069    0.577825    0.256735     0.007504
PD812   PD        0.655264    0.538281    0.255367     0.005394
PD813   PD        0.654628    0.575573    0.221697     0.005394
PD814   PD        0.692526    0.538242    0.220176     0.005394
PD815   PD        0.693137    0.574106    0.254821     0.005394
PD816   PD        0.729702    0.537330    0.253717     0.005394
PD817   PD        0.731321    0.575325    0.220145     0.005394
PD818   PD        0.770265    0.538582    0.222330     0.005394
AU819   AU        0.769059    0.575273    0.257846     0.007504
PD820   PD        0.806211    0.535814    0.257230     0.005394
AU821   AU        0.805325    0.573836    0.223493     0.007504
AU822   AU        0.844383    0.536955    0.221269     0.007504
PD823   PD        0.840502    0.576838    0.256369     0.005394
PD824   PD        0.880312    0.541040    0.255525     0.005394
PD825   PD        0.078751    0.660313    0.255083     0.005394
AU826   AU        0.116460    0.619313    0.251036     0.007504
AU827   AU        0.116490    0.660043    0.216322     0.007504
AU828   AU        0.154369    0.621174    0.217525     0.007504
PD829   PD        0.155399    0.658243    0.255424     0.005394
AU830   AU        0.194162    0.619360    0.252533     0.007504
PD831   PD        0.193388    0.656230    0.218451     0.005394
PD832   PD        0.228433    0.616513    0.216920     0.005394
PD833   PD        0.232506    0.657376    0.251796     0.005394
AU834   AU        0.267363    0.620231    0.251823     0.007504
AU835   AU        0.270295    0.654364    0.215461     0.007504
PD836   PD        0.305213    0.617589    0.214418     0.005394
PD837   PD        0.311671    0.654908    0.249824     0.005394
PD838   PD        0.345110    0.615004    0.252476     0.005394
AU839   AU        0.346180    0.654821    0.216079     0.007504
AU840   AU        0.385215    0.617050    0.216909     0.007504
PD841   PD        0.386679    0.656485    0.250293     0.005394
AU842   AU        0.423291    0.617117    0.254486     0.007504
AU843   AU        0.425300    0.657622    0.216764     0.007504
AU844   AU        0.461407    0.618137    0.215845     0.007504
AU845   AU        0.462900    0.653761    0.252280     0.007504
AU846   AU        0.500422    0.613293    0.253465     0.007504
PD847   PD        0.500596    0.654211    0.215694     0.005394
PD848   PD        0.539822    0.616545    0.220099     0.005394
PD849   PD        0.538451    0.652462    0.254366     0.005394
PD850   PD        0.578344    0.614437    0.255106     0.005394
PD851   PD        0.577107    0.654801    0.221305     0.005394
PD852   PD        0.614597    0.614753    0.219081     0.005394
AU853   AU        0.614112    0.652745    0.254853     0.007504
AU854   AU        0.655877    0.615036    0.254322     0.007504
AU855   AU        0.654503    0.653249    0.221580     0.007504
AU856   AU        0.691746    0.612106    0.222263     0.007504
PD857   PD        0.694740    0.651999    0.256905     0.005394
PD858   PD        0.731877    0.613228    0.254722     0.005394
AU859   AU        0.731911    0.654585    0.220744     0.007504
AU860   AU        0.768094    0.615281    0.221637     0.007504
AU861   AU        0.770616    0.653935    0.259376     0.007504
AU862   AU        0.806808    0.616124    0.255886     0.007504
PD863   PD        0.808173    0.653599    0.222701     0.005394
PD864   PD        0.843786    0.652622    0.261543     0.005394
PD865   PD        0.118642    0.696807    0.254157     0.005394
AU866   AU        0.156229    0.697898    0.218266     0.007504
AU867   AU        0.156585    0.734916    0.253113     0.007504
PD868   PD        0.196041    0.696143    0.254542     0.005394
PD869   PD        0.195708    0.735013    0.219208     0.005394
PD870   PD        0.235370    0.693877    0.216798     0.005394
AU871   AU        0.234206    0.731743    0.251720     0.007504
PD872   PD        0.271863    0.691651    0.250968     0.005394
PD873   PD        0.275693    0.729298    0.216796     0.005394
PD874   PD        0.308545    0.692905    0.215806     0.005394
AU875   AU        0.312572    0.734262    0.252875     0.007504
AU876   AU        0.348454    0.693787    0.249434     0.007504
AU877   AU        0.349152    0.734027    0.218168     0.007504
PD878   PD        0.388791    0.695023    0.214818     0.005394
AU879   AU        0.388361    0.731675    0.252362     0.007504
PD880   PD        0.426489    0.693874    0.251914     0.005394
AU881   AU        0.430202    0.732628    0.216894     0.007504
PD882   PD        0.464771    0.693240    0.217196     0.005394
PD883   PD        0.467066    0.732967    0.254476     0.005394
AU884   AU        0.502961    0.694053    0.253996     0.007504
AU885   AU        0.504419    0.731483    0.218021     0.007504
AU886   AU        0.540346    0.691837    0.218637     0.007504
PD887   PD        0.540424    0.728118    0.254925     0.005394
AU888   AU        0.577693    0.691194    0.255642     0.007504
AU889   AU        0.580693    0.730865    0.222635     0.007504
AU890   AU        0.616018    0.693818    0.222797     0.007504
PD891   PD        0.617574    0.733409    0.256226     0.005394
AU892   AU        0.656853    0.693152    0.256242     0.007504
PD893   PD        0.658804    0.730365    0.221281     0.005394
PD894   PD        0.694657    0.692913    0.222153     0.005394
AU895   AU        0.694247    0.730234    0.256636     0.007504
AU896   AU        0.731937    0.692792    0.254991     0.007504
PD897   PD        0.734119    0.729445    0.222271     0.005394
PD898   PD        0.773452    0.693279    0.224665     0.005394
AU899   AU        0.774616    0.732611    0.256695     0.007504
AU900   AU        0.811366    0.693404    0.257832     0.007504
PD901   PD        0.198046    0.773082    0.251833     0.005394
AU902   AU        0.237294    0.775119    0.218277     0.007504
PD903   PD        0.237370    0.810712    0.253429     0.005394
PD904   PD        0.273993    0.768841    0.252404     0.005394
PD905   PD        0.276301    0.812074    0.219212     0.005394
PD906   PD        0.308523    0.771445    0.219197     0.005394
PD907   PD        0.312876    0.807783    0.254531     0.005394
AU908   AU        0.349379    0.770344    0.253817     0.007504
AU909   AU        0.350950    0.808549    0.215860     0.007504
PD910   PD        0.388437    0.771133    0.217380     0.005394
PD911   PD        0.388471    0.809094    0.254439     0.005394
AU912   AU        0.426217    0.771465    0.254106     0.007504
AU913   AU        0.427105    0.808718    0.217698     0.007504
AU914   AU        0.467093    0.770214    0.218694     0.007504
AU915   AU        0.464131    0.809453    0.254289     0.007504
PD916   PD        0.506286    0.770844    0.252699     0.005394
AU917   AU        0.504164    0.807116    0.219012     0.007504
PD918   PD        0.543301    0.771238    0.218715     0.005394
PD919   PD        0.542179    0.808263    0.256245     0.005394
AU920   AU        0.577748    0.770426    0.256878     0.007504
PD921   PD        0.581530    0.806742    0.221049     0.005394
AU922   AU        0.620026    0.768967    0.219715     0.007504
AU923   AU        0.622214    0.809032    0.253894     0.007504
PD924   PD        0.657385    0.768585    0.256348     0.005394
AU925   AU        0.661247    0.806414    0.218163     0.007504
PD926   PD        0.694827    0.765427    0.220801     0.005394
PD927   PD        0.695040    0.804013    0.257639     0.005394
AU928   AU        0.732846    0.767799    0.257926     0.007504
AU929   AU        0.275255    0.849364    0.256124     0.007504
AU930   AU        0.348730    0.847200    0.253806     0.007504
PD931   PD        0.389351    0.847930    0.217725     0.005394
AU932   AU        0.389627    0.883877    0.254774     0.007504
PD933   PD        0.426538    0.844939    0.255419     0.005394
PD934   PD        0.466539    0.845915    0.218818     0.005394
PD935   PD        0.465528    0.882073    0.259199     0.005394
AU936   AU        0.502441    0.845780    0.254945     0.007504
PD937   PD        0.541645    0.844796    0.221400     0.005394
AU938   AU        0.540952    0.887271    0.254423     0.007504
AU939   AU        0.581545    0.846077    0.253889     0.007504
PD940   PD        0.658791    0.844468    0.257410     0.005394
AU941   AU        0.305867    0.040296    0.321308     0.007504
AU942   AU        0.344674    0.040045    0.285160     0.007504
PD943   PD        0.381933    0.046774    0.322337     0.005394
PD944   PD        0.422648    0.042995    0.288432     0.005394
PD945   PD        0.457471    0.046326    0.323716     0.005394
AU946   AU        0.501093    0.041524    0.291524     0.007504
PD947   PD        0.541041    0.044673    0.326499     0.005394
PD948   PD        0.581173    0.041803    0.288176     0.005394
PD949   PD        0.615880    0.044003    0.324358     0.005394
PD950   PD        0.194147    0.118802    0.285016     0.005394
PD951   PD        0.231981    0.118360    0.320173     0.005394
PD952   PD        0.268712    0.082519    0.323476     0.005394
PD953   PD        0.269137    0.115526    0.285789     0.005394
AU954   AU        0.306208    0.079410    0.286548     0.007504
PD955   PD        0.307617    0.115223    0.323376     0.005394
PD956   PD        0.345738    0.083310    0.318280     0.005394
PD957   PD        0.345590    0.117900    0.282076     0.005394
PD958   PD        0.383637    0.077367    0.282845     0.005394
PD959   PD        0.382187    0.120189    0.320040     0.005394
AU960   AU        0.417604    0.082906    0.321209     0.007504
AU961   AU        0.420318    0.118498    0.287547     0.007504
PD962   PD        0.462630    0.080256    0.289876     0.005394
PD963   PD        0.459428    0.117829    0.323536     0.005394
AU964   AU        0.502624    0.082486    0.326493     0.007504
AU965   AU        0.498701    0.119624    0.289800     0.007504
AU966   AU        0.542370    0.082471    0.287175     0.007504
AU967   AU        0.539872    0.121513    0.326253     0.007504
PD968   PD        0.580076    0.082549    0.323277     0.005394
PD969   PD        0.580674    0.117282    0.287350     0.005394
PD970   PD        0.617878    0.078067    0.288008     0.005394
PD971   PD        0.617148    0.119019    0.323850     0.005394
PD972   PD        0.654513    0.080680    0.324033     0.005394
PD973   PD        0.653518    0.118602    0.291898     0.005394
AU974   AU        0.690536    0.118567    0.325561     0.007504
PD975   PD        0.728616    0.119137    0.288701     0.005394
PD976   PD        0.117454    0.197464    0.289843     0.005394
PD977   PD        0.153594    0.158141    0.287242     0.005394
PD978   PD        0.155717    0.194589    0.326083     0.005394
AU979   AU        0.191494    0.155716    0.321536     0.007504
AU980   AU        0.191141    0.194399    0.286643     0.007504
PD981   PD        0.231099    0.158356    0.286366     0.005394
PD982   PD        0.232929    0.197661    0.324632     0.005394
PD983   PD        0.269843    0.153829    0.322791     0.005394
AU984   AU        0.266099    0.193468    0.288390     0.007504
AU985   AU        0.303303    0.154591    0.287193     0.007504
AU986   AU        0.307086    0.190441    0.323223     0.007504
AU987   AU        0.344133    0.154345    0.321857     0.007504
PD988   PD        0.344667    0.190469    0.285107     0.005394
PD989   PD        0.382135    0.156672    0.283382     0.005394
PD990   PD        0.385269    0.192588    0.320705     0.005394
AU991   AU        0.423228    0.157510    0.324717     0.007504
AU992   AU        0.420992    0.192924    0.287315     0.007504
AU993   AU        0.460511    0.158275    0.288896     0.007504
PD994   PD        0.460563    0.196251    0.326637     0.005394
PD995   PD        0.501066    0.155380    0.324403     0.005394
AU996   AU        0.500692    0.193435    0.289393     0.007504
AU997   AU        0.539543    0.155142    0.289023     0.007504
PD998   PD        0.537400    0.193432    0.323873     0.005394
PD999   PD        0.579378    0.155345    0.325127     0.005394
AU1000   AU        0.577031    0.193644    0.289682     0.007504
PD1001   PD        0.615608    0.156064    0.287029     0.005394
AU1002   AU        0.614292    0.194293    0.324376     0.007504
AU1003   AU        0.652389    0.154688    0.327084     0.007504
PD1004   PD        0.651181    0.194520    0.289535     0.005394
AU1005   AU        0.692014    0.156536    0.289975     0.007504
PD1006   PD        0.692106    0.193241    0.325442     0.005394
AU1007   AU        0.730600    0.155511    0.326094     0.007504
AU1008   AU        0.729783    0.192856    0.289639     0.007504
AU1009   AU        0.766667    0.156240    0.289529     0.007504
PD1010   PD        0.767801    0.193382    0.327828     0.005394
PD1011   PD        0.805678    0.190474    0.289750     0.005394
AU1012   AU        0.080637    0.271458    0.322406     0.007504
PD1013   PD        0.119743    0.234457    0.323962     0.005394
AU1014   AU        0.118555    0.270541    0.286003     0.007504
PD1015   PD        0.154842    0.233246    0.287403     0.005394
AU1016   AU        0.157085    0.273240    0.324263     0.007504
AU1017   AU        0.191906    0.230151    0.321875     0.007504
AU1018   AU        0.191683    0.273357    0.286128     0.007504
AU1019   AU        0.231593    0.231999    0.288051     0.007504
PD1020   PD        0.230550    0.269726    0.320918     0.005394
PD1021   PD        0.270546    0.231039    0.322610     0.005394
AU1022   AU        0.270236    0.269613    0.288052     0.007504
AU1023   AU        0.310468    0.231241    0.288153     0.007504
PD1024   PD        0.308494    0.268028    0.324519     0.005394
PD1025   PD        0.344050    0.232441    0.323190     0.005394
AU1026   AU        0.345213    0.271829    0.289217     0.007504
PD1027   PD        0.385055    0.231044    0.287498     0.005394
PD1028   PD        0.384773    0.269408    0.323907     0.005394
PD1029   PD        0.423451    0.232519    0.322905     0.005394
AU1030   AU        0.421704    0.271590    0.288711     0.007504
AU1031   AU        0.461254    0.230526    0.289244     0.007504
AU1032   AU        0.459581    0.272121    0.323375     0.007504
AU1033   AU        0.500073    0.232863    0.324263     0.007504
PD1034   PD        0.500730    0.272493    0.290029     0.005394
AU1035   AU        0.537827    0.231250    0.287399     0.007504
AU1036   AU        0.538650    0.269143    0.325312     0.007504
PD1037   PD        0.576450    0.231101    0.324033     0.005394
AU1038   AU        0.578728    0.268739    0.290085     0.007504
PD1039   PD        0.616239    0.231225    0.293185     0.005394
AU1040   AU        0.614233    0.268484    0.326383     0.007504
PD1041   PD        0.653504    0.233039    0.325595     0.005394
PD1042   PD        0.654930    0.266699    0.288410     0.005394
PD1043   PD        0.691250    0.230373    0.290648     0.005394
PD1044   PD        0.689701    0.269601    0.325726     0.005394
AU1045   AU        0.730404    0.231106    0.325216     0.007504
PD1046   PD        0.727782    0.268642    0.292839     0.005394
PD1047   PD        0.767567    0.232604    0.293479     0.005394
PD1048   PD        0.768215    0.270850    0.324856     0.005394
AU1049   AU        0.806989    0.230523    0.326511     0.007504
PD1050   PD        0.806297    0.268927    0.292066     0.005394
AU1051   AU        0.845810    0.268651    0.324672     0.007504
PD1052   PD        0.041576    0.310442    0.324526     0.005394
PD1053   PD        0.045051    0.347875    0.286519     0.005394
PD1054   PD        0.082057    0.308520    0.288035     0.005394
AU1055   AU        0.080295    0.347356    0.323229     0.007504
PD1056   PD        0.118141    0.311760    0.323317     0.005394
PD1057   PD        0.116997    0.347469    0.286573     0.005394
AU1058   AU        0.155105    0.312145    0.287283     0.007504
PD1059   PD        0.156700    0.349424    0.323269     0.005394
AU1060   AU        0.195240    0.311410    0.322671     0.007504
PD1061   PD        0.194143    0.346864    0.284635     0.005394
AU1062   AU        0.233819    0.308107    0.286917     0.007504
PD1063   PD        0.230345    0.349539    0.321452     0.005394
AU1064   AU        0.268166    0.307942    0.323470     0.007504
PD1065   PD        0.269632    0.347177    0.289048     0.005394
AU1066   AU        0.309002    0.308277    0.290258     0.007504
AU1067   AU        0.308058    0.347929    0.323493     0.007504
AU1068   AU        0.344977    0.308935    0.325823     0.007504
PD1069   PD        0.345918    0.348865    0.288230     0.005394
AU1070   AU        0.382353    0.312484    0.289997     0.007504
AU1071   AU        0.383871    0.349498    0.325433     0.007504
PD1072   PD        0.419088    0.308875    0.322025     0.005394
AU1073   AU        0.421840    0.348276    0.288370     0.007504
PD1074   PD        0.463194    0.310781    0.286440     0.005394
AU1075   AU        0.461320    0.345793    0.323156     0.007504
AU1076   AU        0.501327    0.308476    0.327391     0.007504
AU1077   AU        0.498187    0.346439    0.289337     0.007504
PD1078   PD        0.539221    0.310263    0.287646     0.005394
AU1079   AU        0.537479    0.346298    0.327199     0.007504
AU1080   AU        0.576973    0.307948    0.325526     0.007504
AU1081   AU        0.578936    0.346252    0.291805     0.007504
AU1082   AU        0.617823    0.307785    0.289764     0.007504
AU1083   AU        0.617190    0.345769    0.324190     0.007504
PD1084   PD        0.654453    0.306290    0.327130     0.005394
AU1085   AU        0.653940    0.345311    0.291737     0.007504
AU1086   AU        0.693795    0.309811    0.291620     0.007504
PD1087   PD        0.690399    0.345800    0.326497     0.005394
AU1088   AU        0.730244    0.306839    0.325335     0.007504
PD1089   PD        0.728835    0.349783    0.287284     0.005394
PD1090   PD        0.767734    0.308517    0.291187     0.005394
AU1091   AU        0.768751    0.344209    0.325381     0.007504
PD1092   PD        0.806316    0.307875    0.326530     0.005394
AU1093   AU        0.806518    0.343912    0.291188     0.007504
AU1094   AU        0.843755    0.308450    0.292396     0.007504
PD1095   PD        0.843954    0.346326    0.327160     0.005394
PD1096   PD        0.881605    0.310124    0.325294     0.005394
PD1097   PD        0.880847    0.348078    0.290587     0.005394
AU1098   AU        0.040989    0.386245    0.321735     0.007504
AU1099   AU        0.043402    0.425333    0.289704     0.007504
AU1100   AU        0.080608    0.387250    0.286971     0.007504
AU1101   AU        0.080339    0.427397    0.324709     0.007504
PD1102   PD        0.119819    0.387039    0.321709     0.005394
PD1103   PD        0.118605    0.426502    0.287009     0.005394
AU1104   AU        0.154509    0.383422    0.284088     0.007504
PD1105   PD        0.154797    0.425033    0.322482     0.005394
PD1106   PD        0.193589    0.386017    0.322297     0.005394
AU1107   AU        0.192911    0.423596    0.288031     0.007504
AU1108   AU        0.233747    0.385100    0.287482     0.007504
PD1109   PD        0.234786    0.423350    0.322943     0.005394
PD1110   PD        0.270470    0.385014    0.320646     0.005394
AU1111   AU        0.269012    0.423863    0.287306     0.007504
AU1112   AU        0.308821    0.386121    0.287100     0.007504
PD1113   PD        0.305288    0.424573    0.322975     0.005394
PD1114   PD        0.345183    0.388575    0.322962     0.005394
AU1115   AU        0.346850    0.425079    0.288190     0.007504
AU1116   AU        0.386463    0.386302    0.287461     0.007504
AU1117   AU        0.386706    0.426377    0.322796     0.007504
AU1118   AU        0.423742    0.384783    0.324239     0.007504
AU1119   AU        0.422889    0.424900    0.287827     0.007504
AU1120   AU        0.462939    0.384631    0.287571     0.007504
AU1121   AU        0.461569    0.420781    0.323348     0.007504
AU1122   AU        0.500299    0.383175    0.323064     0.007504
AU1123   AU        0.502270    0.422455    0.288723     0.007504
PD1124   PD        0.538193    0.384247    0.288969     0.005394
AU1125   AU        0.539255    0.423454    0.323697     0.007504
AU1126   AU        0.575789    0.384683    0.325621     0.007504
AU1127   AU        0.577371    0.424674    0.290647     0.007504
AU1128   AU        0.616184    0.383853    0.290617     0.007504
AU1129   AU        0.612307    0.423267    0.325224     0.007504
PD1130   PD        0.655208    0.385744    0.325898     0.005394
AU1131   AU        0.653641    0.426153    0.291708     0.007504
AU1132   AU        0.689455    0.385896    0.291460     0.007504
AU1133   AU        0.695091    0.425604    0.330502     0.007504
PD1134   PD        0.730487    0.384626    0.328132     0.005394
AU1135   AU        0.731001    0.423257    0.292020     0.007504
AU1136   AU        0.768091    0.382792    0.291063     0.007504
PD1137   PD        0.767778    0.422612    0.325616     0.005394
AU1138   AU        0.805927    0.385189    0.325962     0.007504
AU1139   AU        0.806370    0.423536    0.292292     0.007504
PD1140   PD        0.843626    0.383262    0.293754     0.005394
AU1141   AU        0.847736    0.423202    0.326818     0.007504
PD1142   PD        0.880031    0.383976    0.325921     0.005394
PD1143   PD        0.884753    0.418840    0.288738     0.005394
PD1144   PD        0.042416    0.464461    0.321628     0.005394
AU1145   AU        0.040219    0.505921    0.289866     0.007504
PD1146   PD        0.079418    0.465221    0.289264     0.005394
PD1147   PD        0.079550    0.503800    0.324675     0.005394
PD1148   PD        0.119671    0.463709    0.323157     0.005394
AU1149   AU        0.117853    0.501815    0.289351     0.007504
PD1150   PD        0.156874    0.463291    0.289847     0.005394
PD1151   PD        0.157161    0.502840    0.322690     0.005394
AU1152   AU        0.195522    0.459560    0.325231     0.007504
AU1153   AU        0.192835    0.502630    0.289139     0.007504
AU1154   AU        0.231828    0.460713    0.286925     0.007504
PD1155   PD        0.233059    0.502252    0.322360     0.005394
PD1156   PD        0.269446    0.461909    0.322427     0.005394
PD1157   PD        0.267520    0.503675    0.288039     0.005394
AU1158   AU        0.307157    0.462116    0.287684     0.007504
PD1159   PD        0.303276    0.504735    0.324855     0.005394
PD1160   PD        0.346512    0.463663    0.323218     0.005394
AU1161   AU        0.345032    0.501486    0.288211     0.007504
AU1162   AU        0.386709    0.465314    0.289466     0.007504
AU1163   AU        0.385111    0.504137    0.323214     0.007504
PD1164   PD        0.423194    0.462770    0.324039     0.005394
AU1165   AU        0.425116    0.502416    0.287762     0.007504
AU1166   AU        0.460827    0.462680    0.290214     0.007504
AU1167   AU        0.462358    0.500122    0.327627     0.007504
PD1168   PD        0.500862    0.462556    0.322951     0.005394
PD1169   PD        0.503811    0.499006    0.288623     0.005394
AU1170   AU        0.539355    0.461886    0.290541     0.007504
AU1171   AU        0.540682    0.500766    0.326015     0.007504
PD1172   PD        0.575747    0.461747    0.326998     0.005394
AU1173   AU        0.575903    0.505231    0.290416     0.007504
AU1174   AU        0.612487    0.467957    0.289956     0.007504
PD1175   PD        0.612597    0.500634    0.327317     0.005394
AU1176   AU        0.652632    0.465120    0.327328     0.007504
AU1177   AU        0.654710    0.501321    0.291705     0.007504
PD1178   PD        0.694085    0.462031    0.291546     0.005394
PD1179   PD        0.690026    0.500562    0.328264     0.005394
PD1180   PD        0.730650    0.464722    0.327866     0.005394
PD1181   PD        0.728191    0.499366    0.292171     0.005394
AU1182   AU        0.767942    0.462445    0.292235     0.007504
PD1183   PD        0.767754    0.500894    0.326612     0.005394
PD1184   PD        0.806553    0.462714    0.325286     0.005394
AU1185   AU        0.806086    0.502230    0.290653     0.007504
AU1186   AU        0.844310    0.461961    0.292488     0.007504
PD1187   PD        0.845398    0.500011    0.325509     0.005394
PD1188   PD        0.884302    0.460466    0.327430     0.005394
PD1189   PD        0.884712    0.498670    0.290321     0.005394
PD1190   PD        0.044996    0.541774    0.326549     0.005394
AU1191   AU        0.041694    0.581496    0.289626     0.007504
AU1192   AU        0.081160    0.541587    0.288549     0.007504
PD1193   PD        0.081278    0.580765    0.325512     0.005394
PD1194   PD        0.117567    0.542727    0.322632     0.005394
AU1195   AU        0.119957    0.579554    0.286029     0.007504
PD1196   PD        0.156563    0.541650    0.288176     0.005394
PD1197   PD        0.155275    0.579406    0.323861     0.005394
PD1198   PD        0.193343    0.542867    0.323616     0.005394
AU1199   AU        0.193616    0.580309    0.288107     0.007504
PD1200   PD        0.230863    0.542222    0.288121     0.005394
PD1201   PD        0.230870    0.578757    0.323153     0.005394
AU1202   AU        0.269461    0.543494    0.322383     0.007504
PD1203   PD        0.270736    0.581886    0.290078     0.005394
AU1204   AU        0.306816    0.540085    0.286300     0.007504
PD1205   PD        0.308702    0.581914    0.322768     0.005394
PD1206   PD        0.342400    0.539655    0.323170     0.005394
AU1207   AU        0.345558    0.579441    0.287705     0.007504
AU1208   AU        0.382027    0.539605    0.288174     0.007504
AU1209   AU        0.384014    0.577822    0.323318     0.007504
AU1210   AU        0.424137    0.540866    0.324516     0.007504
AU1211   AU        0.423226    0.577635    0.285852     0.007504
AU1212   AU        0.465750    0.539969    0.287924     0.007504
AU1213   AU        0.460738    0.578981    0.324926     0.007504
AU1214   AU        0.501194    0.538473    0.324096     0.007504
AU1215   AU        0.499860    0.581002    0.290442     0.007504
PD1216   PD        0.537017    0.540830    0.291077     0.005394
AU1217   AU        0.537363    0.577284    0.324724     0.007504
PD1218   PD        0.577938    0.541792    0.325484     0.005394
PD1219   PD        0.575592    0.578938    0.291400     0.005394
AU1220   AU        0.616980    0.540071    0.291385     0.007504
PD1221   PD        0.615473    0.575196    0.326073     0.005394
PD1222   PD        0.656043    0.537574    0.327687     0.005394
PD1223   PD        0.655160    0.576963    0.291596     0.005394
PD1224   PD        0.693847    0.540814    0.292616     0.005394
PD1225   PD        0.689647    0.577043    0.327010     0.005394
PD1226   PD        0.728356    0.535705    0.327771     0.005394
AU1227   AU        0.731817    0.576081    0.291388     0.007504
AU1228   AU        0.767115    0.538508    0.292351     0.007504
PD1229   PD        0.768212    0.578507    0.327182     0.005394
AU1230   AU        0.802584    0.537557    0.328788     0.007504
PD1231   PD        0.805590    0.575327    0.293933     0.005394
PD1232   PD        0.847604    0.537769    0.291100     0.005394
PD1233   PD        0.840768    0.574968    0.326521     0.005394
AU1234   AU        0.885508    0.540861    0.326078     0.007504
PD1235   PD        0.879671    0.579146    0.289359     0.005394
PD1236   PD        0.045498    0.620484    0.325760     0.005394
AU1237   AU        0.080586    0.618938    0.289528     0.007504
AU1238   AU        0.077790    0.661420    0.323153     0.007504
PD1239   PD        0.119718    0.620505    0.323432     0.005394
PD1240   PD        0.116525    0.656580    0.288655     0.005394
PD1241   PD        0.153437    0.618980    0.288042     0.005394
AU1242   AU        0.156513    0.657362    0.323609     0.007504
PD1243   PD        0.194569    0.619805    0.325471     0.005394
AU1244   AU        0.193616    0.657156    0.287094     0.007504
PD1245   PD        0.230990    0.617546    0.288914     0.005394
AU1246   AU        0.229250    0.658060    0.322232     0.007504
AU1247   AU        0.268538    0.616523    0.323819     0.007504
AU1248   AU        0.269862    0.655654    0.288637     0.007504
PD1249   PD        0.309324    0.618597    0.286126     0.005394
AU1250   AU        0.306494    0.656470    0.322709     0.007504
AU1251   AU        0.347807    0.618297    0.322378     0.007504
AU1252   AU        0.346890    0.655535    0.285813     0.007504
AU1253   AU        0.386252    0.616922    0.289355     0.007504
PD1254   PD        0.387451    0.655394    0.323655     0.005394
PD1255   PD        0.424822    0.615419    0.322521     0.005394
AU1256   AU        0.425554    0.654538    0.289269     0.007504
PD1257   PD        0.462113    0.614779    0.290520     0.005394
AU1258   AU        0.462352    0.656462    0.322955     0.007504
AU1259   AU        0.500791    0.616799    0.323858     0.007504
PD1260   PD        0.503667    0.652849    0.287829     0.005394
PD1261   PD        0.540369    0.615831    0.289597     0.005394
AU1262   AU        0.538700    0.652464    0.325527     0.007504
AU1263   AU        0.578029    0.614253    0.326326     0.007504
PD1264   PD        0.578028    0.652638    0.290927     0.005394
AU1265   AU        0.615951    0.612443    0.290789     0.007504
PD1266   PD        0.618086    0.653744    0.324849     0.005394
PD1267   PD        0.651156    0.613201    0.325137     0.005394
AU1268   AU        0.656609    0.651361    0.291118     0.007504
AU1269   AU        0.694245    0.614048    0.294085     0.007504
PD1270   PD        0.692700    0.653059    0.325687     0.005394
AU1271   AU        0.730950    0.615468    0.328377     0.007504
PD1272   PD        0.730581    0.655894    0.292930     0.005394
AU1273   AU        0.769142    0.615503    0.293322     0.007504
PD1274   PD        0.770139    0.652460    0.328013     0.005394
PD1275   PD        0.806651    0.616277    0.329709     0.005394
PD1276   PD        0.806165    0.653980    0.291836     0.005394
PD1277   PD        0.841379    0.611856    0.294507     0.005394
AU1278   AU        0.843942    0.652596    0.326414     0.007504
PD1279   PD        0.878806    0.612501    0.327611     0.005394
PD1280   PD        0.120440    0.695164    0.326990     0.005394
PD1281   PD        0.118893    0.732053    0.290653     0.005394
PD1282   PD        0.156480    0.695136    0.289185     0.005394
AU1283   AU        0.158244    0.733227    0.324562     0.007504
PD1284   PD        0.195380    0.696772    0.318937     0.005394
PD1285   PD        0.195077    0.735117    0.286710     0.005394
PD1286   PD        0.235093    0.695669    0.286669     0.005394
AU1287   AU        0.232774    0.733071    0.322102     0.007504
AU1288   AU        0.270572    0.694767    0.322575     0.007504
PD1289   PD        0.272107    0.730975    0.289580     0.005394
PD1290   PD        0.308236    0.691934    0.285480     0.005394
AU1291   AU        0.313341    0.731206    0.322212     0.007504
AU1292   AU        0.347762    0.690985    0.324125     0.007504
AU1293   AU        0.349308    0.730776    0.288925     0.007504
AU1294   AU        0.386873    0.693848    0.288244     0.007504
AU1295   AU        0.387986    0.730934    0.323819     0.007504
PD1296   PD        0.425450    0.693956    0.325614     0.005394
AU1297   AU        0.426606    0.730345    0.286048     0.007504
AU1298   AU        0.463302    0.690308    0.286927     0.007504
PD1299   PD        0.466929    0.732624    0.325055     0.005394
AU1300   AU        0.501509    0.691445    0.322749     0.007504
PD1301   PD        0.502311    0.730082    0.288535     0.005394
PD1302   PD        0.540133    0.691513    0.290560     0.005394
AU1303   AU        0.538518    0.735239    0.325761     0.007504
AU1304   AU        0.579165    0.690682    0.326201     0.007504
PD1305   PD        0.578425    0.732457    0.289954     0.005394
PD1306   PD        0.614255    0.693855    0.288036     0.005394
PD1307   PD        0.612145    0.730850    0.323475     0.005394
AU1308   AU        0.656974    0.691430    0.326112     0.007504
AU1309   AU        0.652388    0.731119    0.292562     0.007504
PD1310   PD        0.692239    0.691321    0.290525     0.005394
PD1311   PD        0.692307    0.730252    0.328870     0.005394
AU1312   AU        0.729728    0.691930    0.329334     0.007504
AU1313   AU        0.732140    0.728110    0.293233     0.007504
PD1314   PD        0.768453    0.693951    0.293748     0.005394
PD1315   PD        0.769504    0.730303    0.327975     0.005394
AU1316   AU        0.806732    0.691715    0.329746     0.007504
PD1317   PD        0.808741    0.730888    0.295353     0.005394
PD1318   PD        0.159128    0.773866    0.288983     0.005394
PD1319   PD        0.195385    0.773044    0.323284     0.005394
PD1320   PD        0.197512    0.808862    0.289123     0.005394
AU1321   AU        0.235810    0.769901    0.286687     0.007504
PD1322   PD        0.236027    0.809759    0.322561     0.005394
AU1323   AU        0.274106    0.769387    0.324035     0.007504
PD1324   PD        0.273982    0.809630    0.287971     0.005394
PD1325   PD        0.311084    0.770295    0.288565     0.005394
AU1326   AU        0.311506    0.808015    0.324839     0.007504
AU1327   AU        0.349566    0.769586    0.326323     0.007504
PD1328   PD        0.350390    0.808790    0.289488     0.005394
PD1329   PD        0.387791    0.770439    0.288990     0.005394
AU1330   AU        0.386319    0.806128    0.324565     0.007504
AU1331   AU        0.426490    0.769382    0.323420     0.007504
PD1332   PD        0.425720    0.808610    0.290130     0.005394
AU1333   AU        0.465747    0.769813    0.290737     0.007504
AU1334   AU        0.463378    0.806919    0.327117     0.007504
AU1335   AU        0.503825    0.772525    0.325586     0.007504
PD1336   PD        0.503315    0.806255    0.287713     0.005394
PD1337   PD        0.538957    0.769707    0.291376     0.005394
PD1338   PD        0.540800    0.809948    0.324975     0.005394
AU1339   AU        0.579960    0.771354    0.325461     0.007504
AU1340   AU        0.578885    0.808620    0.291332     0.007504
PD1341   PD        0.617007    0.770206    0.289371     0.005394
PD1342   PD        0.615743    0.808712    0.326693     0.005394
AU1343   AU        0.651750    0.769549    0.327013     0.007504
AU1344   AU        0.658773    0.808109    0.290699     0.007504
PD1345   PD        0.693291    0.765825    0.292990     0.005394
PD1346   PD        0.693679    0.805000    0.329047     0.005394
PD1347   PD        0.729232    0.768536    0.329730     0.005394
PD1348   PD        0.733691    0.804120    0.294818     0.005394
PD1349   PD        0.769412    0.766493    0.294793     0.005394
PD1350   PD        0.275139    0.847825    0.324967     0.005394
PD1351   PD        0.313052    0.845113    0.291092     0.005394
AU1352   AU        0.313183    0.887024    0.326964     0.007504
PD1353   PD        0.349843    0.845658    0.324994     0.005394
PD1354   PD        0.351697    0.884585    0.291104     0.005394
PD1355   PD        0.387052    0.844354    0.289305     0.005394
PD1356   PD        0.388505    0.881218    0.327983     0.005394
AU1357   AU        0.425941    0.845864    0.325195     0.007504
PD1358   PD        0.424970    0.880316    0.289049     0.005394
PD1359   PD        0.465008    0.842888    0.292940     0.005394
PD1360   PD        0.465283    0.884137    0.323686     0.005394
PD1361   PD        0.506586    0.843440    0.326435     0.005394
PD1362   PD        0.503302    0.882276    0.291086     0.005394
PD1363   PD        0.542591    0.846637    0.290110     0.005394
PD1364   PD        0.540168    0.882497    0.325470     0.005394
PD1365   PD        0.579918    0.847135    0.326467     0.005394
PD1366   PD        0.580552    0.879783    0.290997     0.005394
PD1367   PD        0.616686    0.845310    0.291562     0.005394
PD1368   PD        0.617831    0.882775    0.326740     0.005394
AU1369   AU        0.658331    0.844820    0.325922     0.007504
PD1370   PD        0.268515    0.044416    0.358898     0.005394
AU1371   AU        0.309809    0.039293    0.394061     0.007504
AU1372   AU        0.344995    0.040927    0.357939     0.007504
PD1373   PD        0.383603    0.047214    0.393520     0.005394
AU1374   AU        0.421322    0.004752    0.390960     0.007504
AU1375   AU        0.420946    0.043538    0.358376     0.007504
PD1376   PD        0.461419    0.004795    0.357238     0.005394
AU1377   AU        0.461685    0.041947    0.393073     0.007504
AU1378   AU        0.498431    0.000769    0.394595     0.007504
AU1379   AU        0.499719    0.041419    0.357138     0.007504
AU1380   AU        0.538401    0.039761    0.391928     0.007504
PD1381   PD        0.578716    0.044833    0.359467     0.005394
PD1382   PD        0.618969    0.038550    0.395089     0.005394
PD1383   PD        0.656108    0.042063    0.361629     0.005394
AU1384   AU        0.155110    0.121017    0.392839     0.007504
AU1385   AU        0.191454    0.077564    0.397299     0.007504
AU1386   AU        0.191829    0.118832    0.357165     0.007504
AU1387   AU        0.228866    0.081537    0.357621     0.007504
AU1388   AU        0.228768    0.117682    0.393613     0.007504
PD1389   PD        0.266916    0.082316    0.394615     0.005394
AU1390   AU        0.270342    0.117587    0.358307     0.007504
AU1391   AU        0.309044    0.078861    0.358491     0.007504
PD1392   PD        0.307097    0.117917    0.392372     0.005394
AU1393   AU        0.344432    0.081901    0.393965     0.007504
PD1394   PD        0.344762    0.119000    0.357437     0.005394
AU1395   AU        0.383339    0.082661    0.356569     0.007504
PD1396   PD        0.383237    0.118494    0.394621     0.005394
AU1397   AU        0.423523    0.082359    0.392679     0.007504
PD1398   PD        0.423534    0.118906    0.358896     0.005394
PD1399   PD        0.461947    0.080435    0.357167     0.005394
PD1400   PD        0.463972    0.117058    0.393568     0.005394
AU1401   AU        0.502794    0.078480    0.393040     0.007504
AU1402   AU        0.500438    0.118203    0.360541     0.007504
PD1403   PD        0.541145    0.081522    0.360873     0.005394
AU1404   AU        0.541420    0.120476    0.394684     0.007504
AU1405   AU        0.578163    0.078528    0.395900     0.007504
PD1406   PD        0.581090    0.116271    0.360229     0.005394
PD1407   PD        0.616731    0.079494    0.359808     0.005394
PD1408   PD        0.616048    0.117774    0.393586     0.005394
PD1409   PD        0.653619    0.080502    0.394556     0.005394
AU1410   AU        0.654073    0.115438    0.359831     0.007504
PD1411   PD        0.693123    0.080502    0.359885     0.005394
PD1412   PD        0.691744    0.120692    0.396314     0.005394
PD1413   PD        0.727565    0.082759    0.396307     0.005394
PD1414   PD        0.728744    0.119040    0.362343     0.005394
AU1415   AU        0.770482    0.115956    0.397971     0.007504
PD1416   PD        0.078032    0.197686    0.393881     0.005394
PD1417   PD        0.118336    0.159973    0.394581     0.005394
AU1418   AU        0.115909    0.195475    0.357155     0.007504
PD1419   PD        0.153041    0.158325    0.360137     0.005394
PD1420   PD        0.158241    0.192066    0.395806     0.005394
PD1421   PD        0.194302    0.155014    0.393817     0.005394
PD1422   PD        0.194651    0.194000    0.358579     0.005394
AU1423   AU        0.230932    0.155919    0.357117     0.007504
PD1424   PD        0.233675    0.191269    0.393928     0.005394
PD1425   PD        0.267132    0.152664    0.393694     0.005394
PD1426   PD        0.268955    0.193978    0.357739     0.005394
PD1427   PD        0.305343    0.155742    0.360530     0.005394
PD1428   PD        0.304786    0.191708    0.393372     0.005394
PD1429   PD        0.344455    0.158108    0.392288     0.005394
PD1430   PD        0.344407    0.194969    0.357655     0.005394
AU1431   AU        0.383490    0.156542    0.357446     0.007504
AU1432   AU        0.382517    0.193563    0.394714     0.007504
PD1433   PD        0.422485    0.156006    0.393117     0.005394
PD1434   PD        0.425901    0.197399    0.356854     0.005394
AU1435   AU        0.461306    0.154502    0.358899     0.007504
PD1436   PD        0.461566    0.194350    0.394156     0.005394
PD1437   PD        0.501113    0.157057    0.394820     0.005394
AU1438   AU        0.499606    0.192349    0.358490     0.007504
PD1439   PD        0.540417    0.158079    0.361087     0.005394
PD1440   PD        0.537628    0.194482    0.395478     0.005394
PD1441   PD        0.579681    0.156570    0.398674     0.005394
AU1442   AU        0.578122    0.193922    0.361239     0.007504
PD1443   PD        0.615521    0.154842    0.361347     0.005394
PD1444   PD        0.617965    0.194315    0.396202     0.005394
PD1445   PD        0.653051    0.155016    0.396067     0.005394
AU1446   AU        0.653030    0.193606    0.359291     0.007504
PD1447   PD        0.692317    0.156879    0.361110     0.005394
AU1448   AU        0.693036    0.192781    0.395948     0.007504
PD1449   PD        0.730996    0.155022    0.394493     0.005394
PD1450   PD        0.733777    0.194252    0.361764     0.005394
AU1451   AU        0.772190    0.151993    0.359361     0.007504
AU1452   AU        0.768861    0.193203    0.396716     0.007504
AU1453   AU        0.808534    0.153582    0.399939     0.007504
PD1454   PD        0.806101    0.192313    0.363489     0.005394
PD1455   PD        0.842977    0.194966    0.396385     0.005394
AU1456   AU        0.043736    0.274149    0.358996     0.007504
PD1457   PD        0.080422    0.235893    0.359297     0.005394
PD1458   PD        0.080942    0.271216    0.397290     0.005394
AU1459   AU        0.117665    0.234335    0.396584     0.007504
PD1460   PD        0.118670    0.273280    0.356881     0.005394
PD1461   PD        0.154410    0.233263    0.360905     0.005394
AU1462   AU        0.157575    0.270257    0.394606     0.007504
AU1463   AU        0.195974    0.230992    0.394396     0.007504
AU1464   AU        0.197509    0.271169    0.361282     0.007504
PD1465   PD        0.232591    0.232531    0.358338     0.005394
PD1466   PD        0.233513    0.271909    0.396524     0.005394
AU1467   AU        0.269469    0.230952    0.393021     0.007504
AU1468   AU        0.267325    0.270696    0.358930     0.007504
AU1469   AU        0.307434    0.231853    0.360393     0.007504
AU1470   AU        0.304650    0.268932    0.394512     0.007504
AU1471   AU        0.344108    0.229890    0.395622     0.007504
PD1472   PD        0.343632    0.269451    0.361938     0.005394
AU1473   AU        0.385477    0.230422    0.359609     0.007504
AU1474   AU        0.383251    0.269704    0.396129     0.007504
AU1475   AU        0.422464    0.232651    0.393411     0.007504
PD1476   PD        0.422354    0.270680    0.359202     0.005394
PD1477   PD        0.463266    0.233823    0.360365     0.005394
PD1478   PD        0.460950    0.269189    0.396526     0.005394
PD1479   PD        0.500217    0.230259    0.392852     0.005394
PD1480   PD        0.500215    0.270148    0.360088     0.005394
AU1481   AU        0.539267    0.229475    0.358173     0.007504
AU1482   AU        0.538160    0.269549    0.394103     0.007504
AU1483   AU        0.575457    0.233324    0.395594     0.007504
PD1484   PD        0.576157    0.270373    0.359616     0.005394
AU1485   AU        0.615098    0.231243    0.362039     0.007504
PD1486   PD        0.616981    0.268274    0.394032     0.005394
AU1487   AU        0.654036    0.230891    0.395217     0.007504
PD1488   PD        0.654441    0.270941    0.360684     0.005394
AU1489   AU        0.694492    0.230707    0.359491     0.007504
AU1490   AU        0.692147    0.270409    0.392584     0.007504
PD1491   PD        0.728961    0.230509    0.394760     0.005394
AU1492   AU        0.731520    0.270108    0.361092     0.007504
PD1493   PD        0.768498    0.229648    0.359918     0.005394
PD1494   PD        0.769775    0.268973    0.395399     0.005394
AU1495   AU        0.805967    0.231806    0.396650     0.007504
PD1496   PD        0.804088    0.269925    0.360644     0.005394
PD1497   PD        0.845693    0.228994    0.359348     0.005394
AU1498   AU        0.845591    0.265632    0.397180     0.007504
PD1499   PD        0.881149    0.270086    0.359606     0.005394
PD1500   PD        0.045675    0.311068    0.393896     0.005394
AU1501   AU        0.040937    0.346374    0.358920     0.007504
PD1502   PD        0.080228    0.309040    0.358484     0.005394
PD1503   PD        0.080997    0.347585    0.392398     0.005394
AU1504   AU        0.116834    0.308144    0.396279     0.007504
PD1505   PD        0.118929    0.349442    0.356811     0.005394
AU1506   AU        0.156625    0.308217    0.359238     0.007504
AU1507   AU        0.154683    0.347380    0.392927     0.007504
AU1508   AU        0.193912    0.308961    0.395497     0.007504
PD1509   PD        0.194713    0.346968    0.357806     0.005394
AU1510   AU        0.230284    0.308777    0.357765     0.007504
PD1511   PD        0.231881    0.346641    0.396771     0.005394
PD1512   PD        0.268680    0.310886    0.396321     0.005394
PD1513   PD        0.268423    0.347064    0.359457     0.005394
AU1514   AU        0.308443    0.307015    0.357918     0.007504
PD1515   PD        0.304308    0.349000    0.394652     0.005394
AU1516   AU        0.344037    0.308639    0.394865     0.007504
AU1517   AU        0.345296    0.348991    0.359049     0.007504
AU1518   AU        0.382698    0.304289    0.360053     0.007504
AU1519   AU        0.383501    0.345719    0.392890     0.007504
AU1520   AU        0.421695    0.309150    0.395423     0.007504
AU1521   AU        0.422513    0.344397    0.359125     0.007504
AU1522   AU        0.459890    0.306377    0.359730     0.007504
AU1523   AU        0.459284    0.347590    0.396047     0.007504
AU1524   AU        0.497774    0.307254    0.395645     0.007504
AU1525   AU        0.497941    0.346760    0.362220     0.007504
PD1526   PD        0.538204    0.308619    0.362630     0.005394
AU1527   AU        0.538813    0.345330    0.396360     0.007504
AU1528   AU        0.577114    0.306517    0.394690     0.007504
AU1529   AU        0.576491    0.346902    0.360290     0.007504
PD1530   PD        0.615806    0.308044    0.358265     0.005394
PD1531   PD        0.614478    0.347980    0.393847     0.005394
AU1532   AU        0.654650    0.309839    0.393843     0.007504
PD1533   PD        0.651823    0.347521    0.358605     0.005394
PD1534   PD        0.693000    0.308321    0.358778     0.005394
AU1535   AU        0.693090    0.346392    0.392085     0.007504
AU1536   AU        0.730359    0.307096    0.395866     0.007504
AU1537   AU        0.731548    0.346109    0.360694     0.007504
PD1538   PD        0.768709    0.307413    0.360993     0.005394
PD1539   PD        0.768905    0.344316    0.394810     0.005394
PD1540   PD        0.805909    0.307078    0.394775     0.005394
PD1541   PD        0.806156    0.346507    0.361071     0.005394
PD1542   PD        0.843851    0.308499    0.361386     0.005394
AU1543   AU        0.843636    0.346053    0.395617     0.007504
AU1544   AU        0.881363    0.306754    0.396108     0.007504
PD1545   PD        0.880588    0.346292    0.361374     0.005394
PD1546   PD        0.004697    0.427455    0.394170     0.005394
AU1547   AU        0.039395    0.386095    0.391407     0.007504
AU1548   AU        0.045599    0.426955    0.359703     0.007504
PD1549   PD        0.079651    0.385537    0.358397     0.005394
PD1550   PD        0.079396    0.426281    0.397748     0.005394
PD1551   PD        0.115889    0.386119    0.392413     0.005394
PD1552   PD        0.116360    0.425922    0.360819     0.005394
AU1553   AU        0.155329    0.389336    0.356885     0.007504
PD1554   PD        0.154628    0.425730    0.394913     0.005394
AU1555   AU        0.191699    0.385057    0.394780     0.007504
AU1556   AU        0.196416    0.425698    0.359498     0.007504
AU1557   AU        0.232366    0.382346    0.360456     0.007504
AU1558   AU        0.230270    0.426474    0.394715     0.007504
PD1559   PD        0.268375    0.387523    0.396264     0.005394
AU1560   AU        0.268366    0.423584    0.359505     0.007504
AU1561   AU        0.306684    0.385670    0.359000     0.007504
AU1562   AU        0.305707    0.422098    0.394710     0.007504
AU1563   AU        0.344561    0.385503    0.395174     0.007504
AU1564   AU        0.346216    0.426304    0.356504     0.007504
AU1565   AU        0.381949    0.388880    0.358461     0.007504
PD1566   PD        0.381039    0.422928    0.394975     0.005394
AU1567   AU        0.420515    0.385450    0.393567     0.007504
PD1568   PD        0.420429    0.425230    0.359043     0.005394
AU1569   AU        0.460711    0.383413    0.358867     0.007504
AU1570   AU        0.459445    0.422157    0.394858     0.007504
PD1571   PD        0.498024    0.383751    0.395811     0.005394
AU1572   AU        0.498177    0.424672    0.357551     0.007504
AU1573   AU        0.537040    0.386084    0.360588     0.007504
PD1574   PD        0.537305    0.421567    0.397132     0.005394
AU1575   AU        0.576260    0.385428    0.394688     0.007504
AU1576   AU        0.576580    0.423755    0.361089     0.007504
PD1577   PD        0.616018    0.387546    0.361760     0.005394
PD1578   PD        0.615157    0.423993    0.396819     0.005394
PD1579   PD        0.654002    0.386146    0.397679     0.005394
AU1580   AU        0.652236    0.424346    0.360133     0.007504
PD1581   PD        0.692293    0.384491    0.362127     0.005394
AU1582   AU        0.691394    0.424299    0.396451     0.007504
PD1583   PD        0.729474    0.381640    0.397621     0.005394
PD1584   PD        0.731766    0.424638    0.365595     0.005394
PD1585   PD        0.767882    0.385386    0.361451     0.005394
AU1586   AU        0.770460    0.420953    0.398468     0.007504
AU1587   AU        0.805923    0.381748    0.395731     0.007504
PD1588   PD        0.804273    0.426031    0.357565     0.005394
PD1589   PD        0.842433    0.385250    0.362355     0.005394
AU1590   AU        0.841302    0.423581    0.393981     0.007504
PD1591   PD        0.882230    0.384885    0.399318     0.005394
PD1592   PD        0.882919    0.422357    0.364195     0.005394
PD1593   PD        0.919783    0.423323    0.401330     0.005394
AU1594   AU        0.004692    0.465298    0.357477     0.007504
PD1595   PD        0.005371    0.504287    0.394171     0.005394
PD1596   PD        0.041185    0.462983    0.393653     0.005394
PD1597   PD        0.043550    0.503891    0.357755     0.005394
AU1598   AU        0.080017    0.466624    0.361027     0.007504
AU1599   AU        0.077674    0.502857    0.394061     0.007504
AU1600   AU        0.117982    0.464438    0.397462     0.007504
PD1601   PD        0.121616    0.500650    0.356122     0.005394
AU1602   AU        0.156467    0.461055    0.359213     0.007504
AU1603   AU        0.156841    0.501310    0.393720     0.007504
AU1604   AU        0.195292    0.465969    0.397115     0.007504
AU1605   AU        0.195957    0.505196    0.356503     0.007504
AU1606   AU        0.233241    0.464231    0.358915     0.007504
PD1607   PD        0.232110    0.501224    0.396211     0.005394
AU1608   AU        0.269118    0.465886    0.395287     0.007504
PD1609   PD        0.269063    0.500051    0.358004     0.005394
AU1610   AU        0.307574    0.462099    0.357591     0.007504
AU1611   AU        0.307843    0.501115    0.395534     0.007504
AU1612   AU        0.347643    0.461375    0.394809     0.007504
AU1613   AU        0.344998    0.500933    0.358211     0.007504
AU1614   AU        0.386488    0.463894    0.359512     0.007504
PD1615   PD        0.383197    0.501251    0.395276     0.005394
AU1616   AU        0.420484    0.461823    0.395955     0.007504
AU1617   AU        0.422434    0.499959    0.361029     0.007504
AU1618   AU        0.460564    0.459839    0.359212     0.007504
AU1619   AU        0.462186    0.497577    0.396353     0.007504
AU1620   AU        0.500380    0.461064    0.397552     0.007504
AU1621   AU        0.501330    0.497308    0.361005     0.007504
AU1622   AU        0.538047    0.459799    0.360984     0.007504
AU1623   AU        0.538858    0.498438    0.395044     0.007504
AU1624   AU        0.576393    0.460333    0.397933     0.007504
PD1625   PD        0.577317    0.500982    0.362207     0.005394
PD1626   PD        0.613129    0.463978    0.363851     0.005394
AU1627   AU        0.616136    0.500053    0.398225     0.007504
AU1628   AU        0.652061    0.461875    0.396387     0.007504
PD1629   PD        0.652501    0.501703    0.362219     0.005394
AU1630   AU        0.692329    0.465587    0.363026     0.007504
PD1631   PD        0.691635    0.501413    0.397212     0.005394
PD1632   PD        0.731165    0.461553    0.398560     0.005394
PD1633   PD        0.728544    0.502141    0.362612     0.005394
AU1634   AU        0.766344    0.464177    0.361016     0.007504
PD1635   PD        0.768666    0.497710    0.399570     0.005394
AU1636   AU        0.805182    0.463871    0.396360     0.007504
PD1637   PD        0.807277    0.500270    0.361488     0.005394
AU1638   AU        0.844250    0.462906    0.360524     0.007504
AU1639   AU        0.843694    0.499769    0.399429     0.007504
AU1640   AU        0.880153    0.460297    0.397921     0.007504
AU1641   AU        0.884812    0.497730    0.361668     0.007504
PD1642   PD        0.920903    0.458595    0.365123     0.005394
PD1643   PD        0.919386    0.499151    0.398144     0.005394
AU1644   AU        0.041550    0.541602    0.390472     0.007504
PD1645   PD        0.044385    0.579099    0.356847     0.005394
PD1646   PD        0.084622    0.540715    0.360151     0.005394
PD1647   PD        0.080513    0.579832    0.395349     0.005394
AU1648   AU        0.119138    0.543871    0.393077     0.007504
AU1649   AU        0.118894    0.581910    0.358217     0.007504
PD1650   PD        0.153552    0.541312    0.357378     0.005394
AU1651   AU        0.157571    0.581159    0.392275     0.007504
AU1652   AU        0.193615    0.541188    0.393120     0.007504
PD1653   PD        0.194704    0.581427    0.357213     0.005394
AU1654   AU        0.233133    0.540237    0.357627     0.007504
AU1655   AU        0.231680    0.579316    0.395803     0.007504
AU1656   AU        0.268860    0.539251    0.395190     0.007504
PD1657   PD        0.269205    0.579773    0.358539     0.005394
AU1658   AU        0.304910    0.539807    0.359001     0.007504
AU1659   AU        0.307845    0.578102    0.392954     0.007504
PD1660   PD        0.347109    0.537586    0.395628     0.005394
AU1661   AU        0.346656    0.577840    0.358764     0.007504
AU1662   AU        0.385045    0.538095    0.360145     0.007504
AU1663   AU        0.384612    0.578213    0.394560     0.007504
AU1664   AU        0.423161    0.537929    0.395878     0.007504
AU1665   AU        0.423669    0.577029    0.362605     0.007504
PD1666   PD        0.463916    0.539479    0.364003     0.005394
AU1667   AU        0.461288    0.579487    0.394608     0.007504
AU1668   AU        0.501727    0.535581    0.394606     0.007504
AU1669   AU        0.500998    0.578525    0.360076     0.007504
AU1670   AU        0.539121    0.539066    0.360400     0.007504
AU1671   AU        0.536950    0.577535    0.395391     0.007504
AU1672   AU        0.578473    0.537915    0.396304     0.007504
AU1673   AU        0.576129    0.576555    0.360645     0.007504
AU1674   AU        0.616045    0.538093    0.363144     0.007504
PD1675   PD        0.615538    0.575731    0.398170     0.005394
PD1676   PD        0.655111    0.540137    0.397258     0.005394
AU1677   AU        0.651420    0.577412    0.361684     0.007504
AU1678   AU        0.691929    0.540040    0.363281     0.007504
PD1679   PD        0.693007    0.577553    0.397721     0.005394
AU1680   AU        0.729788    0.539878    0.401812     0.007504
PD1681   PD        0.730075    0.577472    0.363013     0.005394
AU1682   AU        0.765871    0.537223    0.364586     0.007504
AU1683   AU        0.769999    0.575332    0.398360     0.007504
AU1684   AU        0.807767    0.537170    0.397957     0.007504
PD1685   PD        0.803740    0.578102    0.363782     0.005394
AU1686   AU        0.844810    0.537602    0.363732     0.007504
PD1687   PD        0.842434    0.576241    0.397689     0.005394
AU1688   AU        0.882516    0.538996    0.397952     0.007504
AU1689   AU        0.883827    0.576527    0.363466     0.007504
AU1690   AU        0.043152    0.621440    0.395000     0.007504
PD1691   PD        0.045240    0.660573    0.360389     0.005394
PD1692   PD        0.082164    0.620761    0.357764     0.005394
PD1693   PD        0.081589    0.657696    0.395411     0.005394
AU1694   AU        0.118980    0.616661    0.397398     0.007504
PD1695   PD        0.117902    0.655885    0.361348     0.005394
PD1696   PD        0.155734    0.617889    0.358522     0.005394
AU1697   AU        0.154783    0.656200    0.396009     0.007504
AU1698   AU        0.193510    0.617975    0.394529     0.007504
AU1699   AU        0.194731    0.657536    0.360052     0.007504
PD1700   PD        0.231240    0.620292    0.361250     0.005394
AU1701   AU        0.233364    0.658399    0.396547     0.007504
AU1702   AU        0.269063    0.618397    0.392961     0.007504
PD1703   PD        0.267770    0.656595    0.357760     0.005394
AU1704   AU        0.305941    0.618278    0.357334     0.007504
AU1705   AU        0.309867    0.657415    0.396056     0.007504
AU1706   AU        0.344966    0.616083    0.392876     0.007504
AU1707   AU        0.348624    0.654899    0.359560     0.007504
AU1708   AU        0.387044    0.617520    0.358763     0.007504
AU1709   AU        0.385661    0.654020    0.395586     0.007504
AU1710   AU        0.423803    0.618100    0.397478     0.007504
AU1711   AU        0.423829    0.655298    0.357332     0.007504
AU1712   AU        0.461190    0.617913    0.359915     0.007504
AU1713   AU        0.462354    0.654717    0.396593     0.007504
PD1714   PD        0.499975    0.616815    0.395761     0.005394
AU1715   AU        0.499979    0.652662    0.360938     0.007504
AU1716   AU        0.541083    0.615903    0.362417     0.007504
AU1717   AU        0.539365    0.654365    0.397076     0.007504
AU1718   AU        0.579162    0.612533    0.398484     0.007504
AU1719   AU        0.577314    0.654163    0.360911     0.007504
AU1720   AU        0.615091    0.615771    0.360362     0.007504
AU1721   AU        0.615905    0.653756    0.397653     0.007504
AU1722   AU        0.652313    0.614074    0.397855     0.007504
AU1723   AU        0.654138    0.652632    0.361461     0.007504
AU1724   AU        0.689873    0.613067    0.360790     0.007504
PD1725   PD        0.690815    0.653215    0.398327     0.005394
AU1726   AU        0.731933    0.612299    0.399524     0.007504
AU1727   AU        0.729049    0.651351    0.363194     0.007504
AU1728   AU        0.770347    0.615778    0.365443     0.007504
PD1729   PD        0.769556    0.651427    0.401175     0.005394
PD1730   PD        0.806269    0.614797    0.400387     0.005394
PD1731   PD        0.807020    0.652276    0.363428     0.005394
PD1732   PD        0.842165    0.614210    0.363464     0.005394
AU1733   AU        0.846536    0.654505    0.399729     0.007504
AU1734   AU        0.885143    0.614156    0.397948     0.007504
PD1735   PD        0.880342    0.652821    0.361971     0.005394
PD1736   PD        0.080758    0.698046    0.360298     0.005394
AU1737   AU        0.078340    0.733190    0.400212     0.007504
AU1738   AU        0.120218    0.696611    0.396097     0.007504
AU1739   AU        0.120016    0.735462    0.362749     0.007504
PD1740   PD        0.155652    0.694722    0.360832     0.005394
PD1741   PD        0.159641    0.736853    0.394799     0.005394
PD1742   PD        0.195702    0.696193    0.394823     0.005394
PD1743   PD        0.195598    0.733586    0.359577     0.005394
AU1744   AU        0.233439    0.698166    0.360919     0.007504
PD1745   PD        0.235131    0.735201    0.395402     0.005394
PD1746   PD        0.273270    0.695398    0.393941     0.005394
PD1747   PD        0.273457    0.731397    0.358231     0.005394
PD1748   PD        0.307890    0.694755    0.357096     0.005394
AU1749   AU        0.311005    0.733614    0.394757     0.007504
AU1750   AU        0.346989    0.695292    0.397496     0.007504
PD1751   PD        0.349727    0.730149    0.359444     0.005394
AU1752   AU        0.386352    0.694037    0.359456     0.007504
PD1753   PD        0.386552    0.730180    0.396597     0.005394
PD1754   PD        0.424369    0.693792    0.394573     0.005394
AU1755   AU        0.423270    0.732542    0.360570     0.007504
PD1756   PD        0.461045    0.694538    0.359699     0.005394
AU1757   AU        0.465214    0.731687    0.394673     0.007504
PD1758   PD        0.500972    0.689022    0.398226     0.005394
PD1759   PD        0.502051    0.729314    0.358752     0.005394
PD1760   PD        0.538460    0.691881    0.358515     0.005394
AU1761   AU        0.538958    0.730337    0.395189     0.007504
PD1762   PD        0.576669    0.693071    0.396208     0.005394
PD1763   PD        0.576120    0.731828    0.361611     0.005394
AU1764   AU        0.615213    0.691852    0.360253     0.007504
PD1765   PD        0.613806    0.730595    0.397922     0.005394
PD1766   PD        0.652431    0.692080    0.397758     0.005394
AU1767   AU        0.651808    0.732022    0.360892     0.007504
AU1768   AU        0.690454    0.693889    0.365944     0.007504
PD1769   PD        0.692352    0.728748    0.398507     0.005394
AU1770   AU        0.728572    0.690977    0.398974     0.007504
PD1771   PD        0.729377    0.729518    0.363635     0.005394
AU1772   AU        0.767282    0.691877    0.364942     0.007504
PD1773   PD        0.767777    0.731067    0.400004     0.005394
PD1774   PD        0.805610    0.691222    0.399494     0.005394
PD1775   PD        0.807725    0.730795    0.364307     0.005394
PD1776   PD        0.841283    0.690833    0.365538     0.005394
PD1777   PD        0.843558    0.728773    0.399377     0.005394
PD1778   PD        0.120450    0.773632    0.396771     0.005394
PD1779   PD        0.161387    0.771908    0.359322     0.005394
AU1780   AU        0.161529    0.810303    0.393600     0.007504
PD1781   PD        0.195199    0.773595    0.394834     0.005394
PD1782   PD        0.201010    0.809594    0.357128     0.005394
PD1783   PD        0.234925    0.770183    0.358422     0.005394
PD1784   PD        0.234566    0.806795    0.395416     0.005394
AU1785   AU        0.273583    0.771077    0.394932     0.007504
AU1786   AU        0.272535    0.807037    0.359441     0.007504
PD1787   PD        0.311455    0.770912    0.358758     0.005394
AU1788   AU        0.311295    0.809165    0.397384     0.007504
AU1789   AU        0.348644    0.766994    0.393166     0.007504
PD1790   PD        0.349678    0.808192    0.360336     0.005394
PD1791   PD        0.387058    0.769154    0.360835     0.005394
AU1792   AU        0.386885    0.806918    0.396350     0.007504
AU1793   AU        0.425294    0.769211    0.395384     0.007504
PD1794   PD        0.426624    0.804510    0.360629     0.005394
PD1795   PD        0.465715    0.768828    0.361129     0.005394
PD1796   PD        0.464977    0.806220    0.397908     0.005394
PD1797   PD        0.503219    0.769143    0.397224     0.005394
PD1798   PD        0.504148    0.809379    0.361238     0.005394
AU1799   AU        0.540189    0.770992    0.360383     0.007504
AU1800   AU        0.542809    0.808160    0.395371     0.007504
AU1801   AU        0.577623    0.769496    0.398386     0.007504
PD1802   PD        0.577244    0.808700    0.360428     0.005394
PD1803   PD        0.615077    0.768722    0.363627     0.005394
PD1804   PD        0.615620    0.806803    0.395841     0.005394
AU1805   AU        0.653225    0.766719    0.397442     0.007504
PD1806   PD        0.656130    0.804217    0.364113     0.005394
AU1807   AU        0.692821    0.766954    0.363428     0.007504
PD1808   PD        0.689895    0.804274    0.401117     0.005394
PD1809   PD        0.727310    0.766615    0.397696     0.005394
AU1810   AU        0.729610    0.807193    0.364533     0.007504
AU1811   AU        0.766909    0.766300    0.364455     0.007504
PD1812   PD        0.766602    0.806159    0.397857     0.005394
PD1813   PD        0.805932    0.767890    0.401669     0.005394
AU1814   AU        0.197885    0.850487    0.394258     0.007504
PD1815   PD        0.237004    0.846375    0.359828     0.005394
PD1816   PD        0.274684    0.844143    0.396814     0.005394
PD1817   PD        0.274319    0.883383    0.363095     0.005394
PD1818   PD        0.314835    0.846801    0.361637     0.005394
PD1819   PD        0.312147    0.884420    0.397471     0.005394
PD1820   PD        0.350759    0.844890    0.397471     0.005394
PD1821   PD        0.350642    0.881259    0.363455     0.005394
PD1822   PD        0.387174    0.840279    0.360730     0.005394
PD1823   PD        0.388133    0.882477    0.396734     0.005394
PD1824   PD        0.427072    0.845426    0.394836     0.005394
PD1825   PD        0.424641    0.881862    0.361689     0.005394
AU1826   AU        0.464758    0.845047    0.360948     0.007504
PD1827   PD        0.464324    0.883003    0.396781     0.005394
PD1828   PD        0.501235    0.845336    0.397406     0.005394
AU1829   AU        0.501298    0.884847    0.359929     0.007504
PD1830   PD        0.540606    0.847415    0.361423     0.005394
PD1831   PD        0.543426    0.885159    0.392737     0.005394
AU1832   AU        0.578910    0.846235    0.395668     0.007504
AU1833   AU        0.579533    0.885320    0.361035     0.007504
PD1834   PD        0.617973    0.842757    0.362451     0.005394
PD1835   PD        0.621533    0.880747    0.397077     0.005394
PD1836   PD        0.653769    0.841694    0.401149     0.005394
PD1837   PD        0.655624    0.881398    0.363693     0.005394
AU1838   AU        0.692912    0.844750    0.366123     0.007504
PD1839   PD        0.730451    0.844342    0.401644     0.005394
PD1840   PD        0.426585    0.918599    0.395304     0.005394
AU1841   AU        0.459132    0.919129    0.358815     0.007504
AU1842   AU        0.502582    0.922364    0.393765     0.007504
AU1843   AU        0.268449    0.042802    0.431223     0.007504
PD1844   PD        0.308948    0.042611    0.466678     0.005394
PD1845   PD        0.347089    0.043857    0.430038     0.005394
AU1846   AU        0.383126    0.006288    0.428102     0.007504
AU1847   AU        0.385561    0.043619    0.464625     0.007504
PD1848   PD        0.424111    0.005768    0.465416     0.005394
AU1849   AU        0.422888    0.045047    0.428381     0.007504
AU1850   AU        0.460899    0.004051    0.429605     0.007504
PD1851   PD        0.461285    0.045434    0.463122     0.005394
PD1852   PD        0.497406    0.009478    0.465193     0.005394
PD1853   PD        0.499981    0.045177    0.429724     0.005394
AU1854   AU        0.537745    0.002125    0.431744     0.007504
PD1855   PD        0.536045    0.044759    0.464242     0.005394
AU1856   AU        0.573993    0.041574    0.429267     0.007504
PD1857   PD        0.615244    0.041306    0.463736     0.005394
PD1858   PD        0.652628    0.044363    0.428450     0.005394
AU1859   AU        0.152175    0.119978    0.468449     0.007504
PD1860   PD        0.192646    0.084574    0.465403     0.005394
PD1861   PD        0.194840    0.120742    0.430722     0.005394
PD1862   PD        0.230401    0.082780    0.431237     0.005394
PD1863   PD        0.234887    0.120323    0.466286     0.005394
PD1864   PD        0.267339    0.080929    0.465854     0.005394
AU1865   AU        0.270333    0.120390    0.431215     0.007504
AU1866   AU        0.304847    0.080479    0.428524     0.007504
PD1867   PD        0.304761    0.116616    0.467590     0.005394
AU1868   AU        0.345728    0.082056    0.465046     0.007504
AU1869   AU        0.344202    0.120634    0.427958     0.007504
PD1870   PD        0.385740    0.081632    0.430944     0.005394
PD1871   PD        0.382929    0.119711    0.467411     0.005394
PD1872   PD        0.421325    0.082994    0.467017     0.005394
AU1873   AU        0.421865    0.119006    0.428907     0.007504
PD1874   PD        0.461186    0.083551    0.427996     0.005394
PD1875   PD        0.464161    0.117195    0.465324     0.005394
AU1876   AU        0.499444    0.082944    0.464454     0.007504
AU1877   AU        0.501836    0.118656    0.429449     0.007504
PD1878   PD        0.539080    0.082580    0.429878     0.005394
PD1879   PD        0.539122    0.118566    0.466819     0.005394
AU1880   AU        0.575262    0.079953    0.465176     0.007504
PD1881   PD        0.577957    0.120352    0.431033     0.005394
PD1882   PD        0.615576    0.081957    0.431281     0.005394
AU1883   AU        0.612711    0.115539    0.468071     0.007504
PD1884   PD        0.655255    0.077442    0.467351     0.005394
AU1885   AU        0.654450    0.118923    0.429509     0.007504
PD1886   PD        0.689572    0.079026    0.430773     0.005394
PD1887   PD        0.690955    0.116551    0.467009     0.005394
AU1888   AU        0.727114    0.076136    0.465440     0.007504
PD1889   PD        0.730174    0.116999    0.430272     0.005394
PD1890   PD        0.764863    0.116537    0.465716     0.005394
PD1891   PD        0.081285    0.197461    0.463892     0.005394
PD1892   PD        0.120046    0.160374    0.467602     0.005394
PD1893   PD        0.121700    0.197071    0.428608     0.005394
PD1894   PD        0.156051    0.156090    0.432112     0.005394
AU1895   AU        0.158138    0.194803    0.466746     0.007504
PD1896   PD        0.194140    0.156210    0.467303     0.005394
AU1897   AU        0.194541    0.193474    0.431103     0.007504
PD1898   PD        0.231651    0.157539    0.433449     0.005394
AU1899   AU        0.232763    0.195738    0.467259     0.007504
PD1900   PD        0.270125    0.158001    0.469477     0.005394
PD1901   PD        0.268020    0.193326    0.429714     0.005394
PD1902   PD        0.307049    0.157422    0.431045     0.005394
PD1903   PD        0.307864    0.193728    0.467410     0.005394
PD1904   PD        0.344045    0.154911    0.467436     0.005394
AU1905   AU        0.343913    0.192294    0.430386     0.007504
AU1906   AU        0.381906    0.156581    0.427515     0.007504
AU1907   AU        0.385815    0.190435    0.466217     0.007504
PD1908   PD        0.424617    0.154059    0.466504     0.005394
AU1909   AU        0.421509    0.192831    0.430235     0.007504
AU1910   AU        0.461966    0.156067    0.427181     0.007504
AU1911   AU        0.462048    0.195381    0.466710     0.007504
PD1912   PD        0.500754    0.155070    0.465844     0.005394
PD1913   PD        0.499947    0.193679    0.429759     0.005394
PD1914   PD        0.538187    0.154234    0.433425     0.005394
PD1915   PD        0.538503    0.194704    0.465374     0.005394
PD1916   PD        0.576748    0.156558    0.467257     0.005394
AU1917   AU        0.574702    0.194296    0.430862     0.007504
AU1918   AU        0.618930    0.156244    0.434524     0.007504
AU1919   AU        0.615868    0.194280    0.466791     0.007504
PD1920   PD        0.654568    0.156639    0.467139     0.005394
PD1921   PD        0.652688    0.193628    0.432005     0.005394
AU1922   AU        0.693828    0.155130    0.432244     0.007504
PD1923   PD        0.690329    0.193342    0.468315     0.005394
AU1924   AU        0.727819    0.155406    0.466025     0.007504
AU1925   AU        0.731667    0.194610    0.432336     0.007504
PD1926   PD        0.767140    0.156084    0.432240     0.005394
AU1927   AU        0.767096    0.192313    0.471005     0.007504
PD1928   PD        0.803137    0.153002    0.469781     0.005394
PD1929   PD        0.805830    0.191960    0.434422     0.005394
AU1930   AU        0.844336    0.190574    0.468866     0.007504
AU1931   AU        0.043046    0.272533    0.429795     0.007504
AU1932   AU        0.078172    0.235523    0.431294     0.007504
PD1933   PD        0.081189    0.274059    0.466110     0.005394
AU1934   AU        0.118579    0.232350    0.463859     0.007504
PD1935   PD        0.117951    0.274402    0.432378     0.005394
PD1936   PD        0.158951    0.233519    0.430622     0.005394
PD1937   PD        0.157109    0.272551    0.464530     0.005394
PD1938   PD        0.193847    0.233557    0.466003     0.005394
PD1939   PD        0.196692    0.271474    0.431094     0.005394
PD1940   PD        0.233932    0.232899    0.428291     0.005394
AU1941   AU        0.231386    0.270944    0.466891     0.007504
AU1942   AU        0.269840    0.233009    0.467780     0.007504
AU1943   AU        0.269782    0.271833    0.432097     0.007504
PD1944   PD        0.305720    0.230112    0.432184     0.005394
PD1945   PD        0.306561    0.270951    0.466608     0.005394
AU1946   AU        0.345257    0.233238    0.466031     0.007504
AU1947   AU        0.345034    0.270426    0.430875     0.007504
PD1948   PD        0.382671    0.228996    0.429268     0.005394
AU1949   AU        0.384814    0.271781    0.466299     0.007504
PD1950   PD        0.423562    0.230682    0.464281     0.005394
AU1951   AU        0.421336    0.269843    0.429038     0.007504
AU1952   AU        0.463446    0.231243    0.429113     0.007504
AU1953   AU        0.462912    0.269416    0.466841     0.007504
AU1954   AU        0.499237    0.232670    0.466374     0.007504
AU1955   AU        0.498766    0.268619    0.429765     0.007504
PD1956   PD        0.537118    0.233972    0.431680     0.005394
AU1957   AU        0.539781    0.273053    0.466595     0.007504
AU1958   AU        0.576729    0.234137    0.467305     0.007504
AU1959   AU        0.579723    0.269012    0.431861     0.007504
AU1960   AU        0.615330    0.231755    0.431180     0.007504
PD1961   PD        0.617397    0.269693    0.467507     0.005394
PD1962   PD        0.655290    0.231421    0.467347     0.005394
PD1963   PD        0.654586    0.268806    0.430204     0.005394
AU1964   AU        0.692088    0.231620    0.430241     0.007504
PD1965   PD        0.692030    0.269474    0.468244     0.005394
AU1966   AU        0.729195    0.230539    0.468369     0.007504
AU1967   AU        0.732626    0.268718    0.431598     0.007504
AU1968   AU        0.770347    0.230808    0.433468     0.007504
AU1969   AU        0.768176    0.270878    0.468857     0.007504
AU1970   AU        0.805848    0.229561    0.470707     0.007504
PD1971   PD        0.806418    0.271435    0.432366     0.005394
PD1972   PD        0.844757    0.230195    0.433097     0.005394
AU1973   AU        0.844867    0.270235    0.469285     0.007504
PD1974   PD        0.882765    0.271230    0.434974     0.005394
AU1975   AU        0.039661    0.312004    0.464634     0.007504
PD1976   PD        0.044339    0.348279    0.427522     0.005394
PD1977   PD        0.081710    0.312282    0.429890     0.005394
AU1978   AU        0.078962    0.349954    0.465397     0.007504
AU1979   AU        0.116929    0.313784    0.465403     0.007504
AU1980   AU        0.120781    0.348060    0.428341     0.007504
AU1981   AU        0.157149    0.307913    0.429908     0.007504
PD1982   PD        0.156641    0.346251    0.468528     0.005394
PD1983   PD        0.192578    0.307702    0.466825     0.005394
PD1984   PD        0.191203    0.347356    0.429529     0.005394
AU1985   AU        0.230819    0.309840    0.431997     0.007504
AU1986   AU        0.227970    0.347007    0.464130     0.007504
AU1987   AU        0.271990    0.309332    0.465297     0.007504
AU1988   AU        0.271680    0.348046    0.431640     0.007504
PD1989   PD        0.308615    0.310062    0.433595     0.005394
PD1990   PD        0.308066    0.349264    0.465480     0.005394
AU1991   AU        0.348505    0.309039    0.467581     0.007504
AU1992   AU        0.345417    0.346940    0.428059     0.007504
PD1993   PD        0.384086    0.309760    0.433682     0.005394
AU1994   AU        0.385312    0.346331    0.466263     0.007504
PD1995   PD        0.421080    0.307971    0.466100     0.005394
PD1996   PD        0.423345    0.348955    0.430189     0.005394
AU1997   AU        0.459444    0.309685    0.430476     0.007504
AU1998   AU        0.459679    0.344621    0.466720     0.007504
PD1999   PD        0.499256    0.307534    0.465525     0.005394
PD2000   PD        0.498624    0.345703    0.430324     0.005394
AU2001   AU        0.540039    0.307449    0.430420     0.007504
AU2002   AU        0.537167    0.345601    0.466980     0.007504
AU2003   AU        0.579997    0.307000    0.466667     0.007504
AU2004   AU        0.578684    0.347592    0.431524     0.007504
AU2005   AU        0.613893    0.307951    0.426219     0.007504
AU2006   AU        0.617433    0.346619    0.467012     0.007504
PD2007   PD        0.652695    0.305794    0.465790     0.005394
PD2008   PD        0.653052    0.347963    0.430705     0.005394
AU2009   AU        0.693115    0.308131    0.429960     0.007504
PD2010   PD        0.691809    0.345388    0.466204     0.005394
PD2011   PD        0.730559    0.306590    0.463954     0.005394
PD2012   PD        0.731193    0.344669    0.432272     0.005394
AU2013   AU        0.770238    0.308217    0.430508     0.007504
PD2014   PD        0.768077    0.346237    0.469666     0.005394
PD2015   PD        0.805804    0.307652    0.467695     0.005394
AU2016   AU        0.807866    0.345618    0.433203     0.007504
AU2017   AU        0.845285    0.307050    0.432322     0.007504
PD2018   PD        0.841861    0.347537    0.470013     0.005394
PD2019   PD        0.879521    0.310594    0.469170     0.005394
PD2020   PD        0.880158    0.347052    0.433229     0.005394
AU2021   AU        0.004744    0.385713    0.428424     0.007504
AU2022   AU        0.003153    0.429625    0.467477     0.007504
AU2023   AU        0.042729    0.388276    0.466006     0.007504
AU2024   AU        0.039947    0.426440    0.431928     0.007504
PD2025   PD        0.078864    0.386311    0.426593     0.005394
PD2026   PD        0.080793    0.424653    0.462466     0.005394
AU2027   AU        0.118262    0.386623    0.465233     0.007504
PD2028   PD        0.118950    0.422304    0.427368     0.005394
PD2029   PD        0.156791    0.385221    0.430929     0.005394
PD2030   PD        0.155259    0.424857    0.466009     0.005394
AU2031   AU        0.194099    0.387184    0.466314     0.007504
AU2032   AU        0.193368    0.424046    0.430411     0.007504
AU2033   AU        0.231487    0.385214    0.430840     0.007504
PD2034   PD        0.233516    0.423446    0.467624     0.005394
AU2035   AU        0.270776    0.386873    0.468573     0.007504
PD2036   PD        0.269448    0.423559    0.432790     0.005394
PD2037   PD        0.306993    0.387118    0.430316     0.005394
AU2038   AU        0.309171    0.423311    0.466170     0.007504
AU2039   AU        0.347752    0.382238    0.467978     0.007504
AU2040   AU        0.345359    0.423898    0.431765     0.007504
AU2041   AU        0.384385    0.384450    0.431695     0.007504
AU2042   AU        0.386924    0.423615    0.467096     0.007504
AU2043   AU        0.424174    0.384170    0.468745     0.007504
AU2044   AU        0.423667    0.421761    0.432628     0.007504
AU2045   AU        0.461373    0.385748    0.433036     0.007504
AU2046   AU        0.465570    0.423699    0.470078     0.007504
AU2047   AU        0.501795    0.384256    0.466103     0.007504
AU2048   AU        0.498894    0.422521    0.431196     0.007504
AU2049   AU        0.535287    0.383068    0.429738     0.007504
AU2050   AU        0.539307    0.424129    0.466707     0.007504
AU2051   AU        0.578359    0.387412    0.467022     0.007504
AU2052   AU        0.576889    0.421076    0.431627     0.007504
AU2053   AU        0.615503    0.386319    0.430826     0.007504
AU2054   AU        0.617615    0.422762    0.467186     0.007504
PD2055   PD        0.655038    0.383811    0.467442     0.005394
AU2056   AU        0.654977    0.423796    0.433265     0.007504
AU2057   AU        0.691554    0.383273    0.431501     0.007504
AU2058   AU        0.692292    0.420315    0.467145     0.007504
PD2059   PD        0.727347    0.383039    0.466091     0.005394
AU2060   AU        0.729205    0.422549    0.433107     0.007504
AU2061   AU        0.767744    0.383926    0.432202     0.007504
AU2062   AU        0.767316    0.425287    0.469950     0.007504
AU2063   AU        0.803640    0.387580    0.468662     0.007504
AU2064   AU        0.807522    0.424419    0.434473     0.007504
AU2065   AU        0.843718    0.384756    0.433772     0.007504
PD2066   PD        0.843636    0.422729    0.469687     0.005394
PD2067   PD        0.882028    0.383217    0.466685     0.005394
PD2068   PD        0.881649    0.422391    0.432267     0.005394
PD2069   PD        0.918088    0.382748    0.431675     0.005394
PD2070   PD        0.919592    0.422258    0.463709     0.005394
PD2071   PD        0.007042    0.468623    0.432259     0.005394
PD2072   PD        0.004291    0.504882    0.467034     0.005394
AU2073   AU        0.043614    0.464149    0.468283     0.007504
PD2074   PD        0.041434    0.504162    0.430044     0.005394
PD2075   PD        0.079475    0.464849    0.429057     0.005394
PD2076   PD        0.081384    0.501948    0.465252     0.005394
AU2077   AU        0.117784    0.463751    0.462720     0.007504
PD2078   PD        0.116484    0.504274    0.429478     0.005394
PD2079   PD        0.157076    0.462513    0.430150     0.005394
AU2080   AU        0.156114    0.502132    0.465085     0.007504
PD2081   PD        0.193211    0.461962    0.464439     0.005394
PD2082   PD        0.192784    0.501788    0.430414     0.005394
PD2083   PD        0.232943    0.461830    0.431942     0.005394
AU2084   AU        0.230397    0.502466    0.465577     0.007504
AU2085   AU        0.268776    0.463312    0.466154     0.007504
PD2086   PD        0.271395    0.503743    0.433022     0.005394
AU2087   AU        0.307876    0.463103    0.432327     0.007504
AU2088   AU        0.306673    0.502250    0.466792     0.007504
AU2089   AU        0.346902    0.461941    0.467086     0.007504
PD2090   PD        0.346304    0.498633    0.430086     0.005394
AU2091   AU        0.385434    0.461692    0.433332     0.007504
PD2092   PD        0.387858    0.500048    0.466920     0.005394
AU2093   AU        0.424099    0.462390    0.467922     0.007504
AU2094   AU        0.421449    0.499614    0.430669     0.007504
AU2095   AU        0.460942    0.460270    0.431138     0.007504
AU2096   AU        0.463814    0.499807    0.467092     0.007504
AU2097   AU        0.502135    0.462888    0.469117     0.007504
AU2098   AU        0.502829    0.499059    0.433972     0.007504
AU2099   AU        0.539427    0.461673    0.433398     0.007504
AU2100   AU        0.541144    0.501487    0.469826     0.007504
AU2101   AU        0.578200    0.458230    0.468417     0.007504
AU2102   AU        0.577226    0.500356    0.433187     0.007504
AU2103   AU        0.614276    0.463231    0.433101     0.007504
AU2104   AU        0.615595    0.499587    0.469735     0.007504
AU2105   AU        0.657433    0.460127    0.468888     0.007504
AU2106   AU        0.654283    0.502373    0.437156     0.007504
PD2107   PD        0.691004    0.463964    0.431952     0.005394
PD2108   PD        0.691634    0.501056    0.470056     0.005394
AU2109   AU        0.728417    0.462916    0.466795     0.007504
AU2110   AU        0.728911    0.498970    0.432354     0.007504
PD2111   PD        0.769705    0.461040    0.432745     0.005394
PD2112   PD        0.766374    0.501096    0.469775     0.005394
PD2113   PD        0.810642    0.462176    0.469442     0.005394
AU2114   AU        0.805092    0.500205    0.436109     0.007504
PD2115   PD        0.844917    0.461074    0.432817     0.005394
PD2116   PD        0.845572    0.500062    0.469654     0.005394
PD2117   PD        0.883028    0.460470    0.467924     0.005394
AU2118   AU        0.882045    0.501218    0.434070     0.007504
PD2119   PD        0.918885    0.461296    0.433205     0.005394
PD2120   PD        0.921042    0.504855    0.470119     0.005394
AU2121   AU        0.000769    0.543153    0.429135     0.007504
AU2122   AU        0.040852    0.543926    0.465719     0.007504
AU2123   AU        0.041327    0.581774    0.429563     0.007504
AU2124   AU        0.079276    0.542967    0.430663     0.007504
AU2125   AU        0.079698    0.577858    0.468247     0.007504
AU2126   AU        0.118228    0.538983    0.467617     0.007504
AU2127   AU        0.119025    0.578481    0.431921     0.007504
AU2128   AU        0.156721    0.539354    0.431254     0.007504
PD2129   PD        0.157017    0.577514    0.467679     0.005394
AU2130   AU        0.195333    0.540215    0.466193     0.007504
AU2131   AU        0.193686    0.576802    0.430199     0.007504
PD2132   PD        0.230710    0.536793    0.428442     0.005394
PD2133   PD        0.230951    0.578169    0.465125     0.005394
AU2134   AU        0.268960    0.542690    0.467356     0.007504
AU2135   AU        0.268469    0.577205    0.429665     0.007504
PD2136   PD        0.308283    0.540606    0.427498     0.005394
PD2137   PD        0.310615    0.577080    0.464985     0.005394
AU2138   AU        0.349614    0.537603    0.466165     0.007504
AU2139   AU        0.346976    0.577792    0.428836     0.007504
AU2140   AU        0.386257    0.538325    0.429909     0.007504
AU2141   AU        0.386933    0.577790    0.466081     0.007504
AU2142   AU        0.425490    0.538766    0.466244     0.007504
AU2143   AU        0.424673    0.578102    0.430799     0.007504
AU2144   AU        0.462447    0.540215    0.431041     0.007504
AU2145   AU        0.462478    0.580416    0.469405     0.007504
AU2146   AU        0.500053    0.542455    0.469319     0.007504
AU2147   AU        0.500338    0.577712    0.430573     0.007504
AU2148   AU        0.537350    0.538581    0.436047     0.007504
PD2149   PD        0.543264    0.578715    0.469318     0.005394
PD2150   PD        0.579617    0.538879    0.468861     0.005394
AU2151   AU        0.576802    0.573351    0.431286     0.007504
PD2152   PD        0.615691    0.538296    0.432983     0.005394
AU2153   AU        0.617766    0.574449    0.470369     0.007504
AU2154   AU        0.654497    0.539038    0.472543     0.007504
AU2155   AU        0.652124    0.576703    0.435210     0.007504
AU2156   AU        0.689533    0.539359    0.433144     0.007504
AU2157   AU        0.693405    0.575914    0.471419     0.007504
AU2158   AU        0.729628    0.537633    0.469646     0.007504
PD2159   PD        0.732382    0.576640    0.435348     0.005394
PD2160   PD        0.769725    0.538656    0.434847     0.005394
AU2161   AU        0.768897    0.576422    0.468336     0.007504
AU2162   AU        0.808310    0.539986    0.470058     0.007504
AU2163   AU        0.806969    0.576031    0.433602     0.007504
PD2164   PD        0.845199    0.535817    0.432459     0.005394
PD2165   PD        0.846049    0.575996    0.468215     0.005394
PD2166   PD        0.880983    0.538273    0.469858     0.005394
PD2167   PD        0.882785    0.576392    0.432558     0.005394
PD2168   PD        0.919276    0.537348    0.433275     0.005394
PD2169   PD        0.043936    0.618075    0.468250     0.005394
PD2170   PD        0.042751    0.655751    0.433137     0.005394
PD2171   PD        0.081026    0.617566    0.433434     0.005394
AU2172   AU        0.082695    0.657707    0.466348     0.007504
AU2173   AU        0.119483    0.617052    0.466796     0.007504
PD2174   PD        0.120963    0.657738    0.430892     0.005394
AU2175   AU        0.158773    0.620058    0.433815     0.007504
PD2176   PD        0.155883    0.655080    0.467126     0.005394
PD2177   PD        0.194732    0.616124    0.468431     0.005394
PD2178   PD        0.192969    0.658065    0.429969     0.005394
AU2179   AU        0.230071    0.618039    0.432697     0.007504
AU2180   AU        0.233895    0.654008    0.467890     0.007504
AU2181   AU        0.271010    0.614760    0.467373     0.007504
PD2182   PD        0.269086    0.654247    0.431824     0.005394
AU2183   AU        0.309163    0.616262    0.431522     0.007504
AU2184   AU        0.309956    0.655697    0.470447     0.007504
PD2185   PD        0.347175    0.616737    0.466684     0.005394
AU2186   AU        0.344781    0.654414    0.434242     0.007504
AU2187   AU        0.384877    0.618053    0.433519     0.007504
PD2188   PD        0.387189    0.655530    0.469418     0.005394
AU2189   AU        0.424629    0.617821    0.466071     0.007504
AU2190   AU        0.424637    0.655631    0.430439     0.007504
AU2191   AU        0.464641    0.617123    0.434451     0.007504
AU2192   AU        0.463443    0.655588    0.469507     0.007504
AU2193   AU        0.502893    0.615981    0.468273     0.007504
AU2194   AU        0.500819    0.654664    0.433176     0.007504
AU2195   AU        0.540119    0.614905    0.432113     0.007504
AU2196   AU        0.538866    0.654718    0.466772     0.007504
AU2197   AU        0.580891    0.616312    0.468070     0.007504
AU2198   AU        0.576144    0.652741    0.431049     0.007504
AU2199   AU        0.618272    0.614974    0.434270     0.007504
PD2200   PD        0.619426    0.653108    0.469206     0.005394
PD2201   PD        0.654980    0.614246    0.470904     0.005394
PD2202   PD        0.657084    0.653396    0.434197     0.005394
AU2203   AU        0.692685    0.612195    0.434839     0.007504
PD2204   PD        0.691909    0.653011    0.470097     0.005394
PD2205   PD        0.729784    0.615404    0.468229     0.005394
AU2206   AU        0.729633    0.653015    0.435841     0.007504
PD2207   PD        0.768711    0.614177    0.434581     0.005394
PD2208   PD        0.771102    0.651810    0.467145     0.005394
AU2209   AU        0.808765    0.611474    0.468156     0.007504
PD2210   PD        0.806646    0.652261    0.432953     0.005394
AU2211   AU        0.846397    0.614891    0.433359     0.007504
AU2212   AU        0.843310    0.653163    0.468548     0.007504
PD2213   PD        0.887391    0.617230    0.470375     0.005394
PD2214   PD        0.881603    0.656174    0.433254     0.005394
PD2215   PD        0.082205    0.694019    0.431778     0.005394
AU2216   AU        0.083076    0.731412    0.466701     0.007504
PD2217   PD        0.121353    0.694696    0.466648     0.005394
AU2218   AU        0.120128    0.734469    0.431547     0.007504
PD2219   PD        0.158148    0.698225    0.429842     0.005394
AU2220   AU        0.159637    0.733662    0.466885     0.007504
AU2221   AU        0.194978    0.693221    0.463975     0.007504
AU2222   AU        0.197962    0.733168    0.431704     0.007504
PD2223   PD        0.234743    0.694239    0.430771     0.005394
PD2224   PD        0.235315    0.732400    0.468083     0.005394
PD2225   PD        0.271788    0.695590    0.468599     0.005394
AU2226   AU        0.271272    0.732294    0.431705     0.007504
PD2227   PD        0.309555    0.694362    0.431407     0.005394
PD2228   PD        0.309910    0.731636    0.467717     0.005394
AU2229   AU        0.347524    0.692568    0.466705     0.007504
PD2230   PD        0.347597    0.734746    0.432042     0.005394
AU2231   AU        0.383548    0.694830    0.434017     0.007504
AU2232   AU        0.384941    0.733457    0.468582     0.007504
AU2233   AU        0.425310    0.692369    0.467723     0.007504
AU2234   AU        0.425763    0.728859    0.432560     0.007504
AU2235   AU        0.464097    0.690539    0.432506     0.007504
PD2236   PD        0.464970    0.730348    0.467862     0.005394
AU2237   AU        0.504135    0.693532    0.468052     0.007504
PD2238   PD        0.498487    0.731169    0.429769     0.005394
AU2239   AU        0.538038    0.693417    0.431264     0.007504
PD2240   PD        0.539770    0.732349    0.467966     0.005394
AU2241   AU        0.577585    0.695164    0.468900     0.007504
PD2242   PD        0.575367    0.728470    0.431880     0.005394
AU2243   AU        0.614073    0.691038    0.433960     0.007504
PD2244   PD        0.616889    0.732032    0.470030     0.005394
PD2245   PD        0.654456    0.693772    0.468293     0.005394
PD2246   PD        0.651837    0.726129    0.432211     0.005394
PD2247   PD        0.692322    0.690887    0.432658     0.005394
PD2248   PD        0.692660    0.730314    0.467570     0.005394
AU2249   AU        0.729202    0.694126    0.469475     0.007504
PD2250   PD        0.728148    0.731332    0.432655     0.005394
AU2251   AU        0.766416    0.690411    0.433803     0.007504
AU2252   AU        0.768743    0.731797    0.469502     0.007504
PD2253   PD        0.804872    0.690848    0.468845     0.005394
AU2254   AU        0.806852    0.730220    0.433848     0.007504
PD2255   PD        0.840041    0.691975    0.434488     0.005394
PD2256   PD        0.843691    0.728285    0.468880     0.005394
PD2257   PD        0.120823    0.769690    0.468975     0.005394
AU2258   AU        0.159050    0.772690    0.431277     0.007504
PD2259   PD        0.159723    0.808493    0.467204     0.005394
AU2260   AU        0.198286    0.773984    0.469400     0.007504
PD2261   PD        0.197746    0.807563    0.432635     0.005394
PD2262   PD        0.235555    0.772721    0.430814     0.005394
AU2263   AU        0.236224    0.808471    0.469783     0.007504
AU2264   AU        0.272435    0.771137    0.468972     0.007504
PD2265   PD        0.271523    0.807843    0.431263     0.005394
PD2266   PD        0.309231    0.770484    0.431856     0.005394
PD2267   PD        0.311539    0.807951    0.468332     0.005394
PD2268   PD        0.346001    0.771235    0.466440     0.005394
PD2269   PD        0.348132    0.806627    0.429508     0.005394
PD2270   PD        0.386963    0.769475    0.431596     0.005394
PD2271   PD        0.388088    0.807316    0.465581     0.005394
AU2272   AU        0.424772    0.768671    0.466798     0.007504
PD2273   PD        0.424621    0.806476    0.430901     0.005394
PD2274   PD        0.462833    0.768884    0.431119     0.005394
AU2275   AU        0.463471    0.807724    0.465841     0.007504
AU2276   AU        0.500362    0.770577    0.466448     0.007504
PD2277   PD        0.505570    0.806652    0.431859     0.005394
PD2278   PD        0.539602    0.769633    0.432465     0.005394
PD2279   PD        0.544356    0.805829    0.464736     0.005394
PD2280   PD        0.577726    0.767817    0.468171     0.005394
PD2281   PD        0.579480    0.807311    0.430502     0.005394
AU2282   AU        0.615495    0.768597    0.433761     0.007504
PD2283   PD        0.616094    0.804997    0.469304     0.005394
PD2284   PD        0.653360    0.767843    0.468622     0.005394
PD2285   PD        0.650935    0.804859    0.433743     0.005394
PD2286   PD        0.690657    0.764489    0.432865     0.005394
AU2287   AU        0.692381    0.803362    0.470108     0.007504
PD2288   PD        0.730545    0.766160    0.469293     0.005394
PD2289   PD        0.725438    0.802262    0.434441     0.005394
PD2290   PD        0.767316    0.766932    0.434179     0.005394
PD2291   PD        0.768288    0.802541    0.468496     0.005394
AU2292   AU        0.810381    0.769203    0.467285     0.007504
AU2293   AU        0.193759    0.848417    0.465602     0.007504
AU2294   AU        0.236334    0.845955    0.430980     0.007504
PD2295   PD        0.277174    0.846917    0.469392     0.005394
PD2296   PD        0.274053    0.881903    0.431525     0.005394
AU2297   AU        0.312239    0.845931    0.431973     0.007504
AU2298   AU        0.312297    0.885049    0.468093     0.007504
PD2299   PD        0.351263    0.842366    0.464533     0.005394
PD2300   PD        0.352075    0.883374    0.431793     0.005394
PD2301   PD        0.389372    0.841883    0.431126     0.005394
PD2302   PD        0.389173    0.881432    0.466370     0.005394
PD2303   PD        0.427072    0.845597    0.465051     0.005394
PD2304   PD        0.427361    0.880598    0.430543     0.005394
PD2305   PD        0.464543    0.846978    0.430201     0.005394
AU2306   AU        0.463605    0.883680    0.465043     0.007504
AU2307   AU        0.504685    0.845955    0.464965     0.007504
PD2308   PD        0.503371    0.883862    0.429958     0.005394
PD2309   PD        0.544190    0.845774    0.430893     0.005394
PD2310   PD        0.542083    0.882144    0.465598     0.005394
PD2311   PD        0.578778    0.844200    0.464783     0.005394
PD2312   PD        0.582703    0.883540    0.429718     0.005394
PD2313   PD        0.614806    0.843599    0.432842     0.005394
AU2314   AU        0.617783    0.885412    0.467670     0.007504
PD2315   PD        0.651866    0.842123    0.468056     0.005394
AU2316   AU        0.657079    0.881817    0.435573     0.007504
PD2317   PD        0.690344    0.841183    0.434201     0.005394
PD2318   PD        0.729589    0.840969    0.467269     0.005394
PD2319   PD        0.389497    0.920348    0.430222     0.005394
PD2320   PD        0.426266    0.920261    0.465071     0.005394
PD2321   PD        0.462039    0.922109    0.429579     0.005394
AU2322   AU        0.501326    0.920844    0.464347     0.007504
AU2323   AU        0.541593    0.922573    0.430004     0.007504
AU2324   AU        0.269235    0.041217    0.499440     0.007504
PD2325   PD        0.309953    0.040899    0.536341     0.005394
PD2326   PD        0.349927    0.043585    0.502032     0.005394
PD2327   PD        0.389397    0.043071    0.537309     0.005394
PD2328   PD        0.421962    0.044776    0.499798     0.005394
PD2329   PD        0.458828    0.007274    0.500963     0.005394
AU2330   AU        0.459060    0.042370    0.539829     0.007504
PD2331   PD        0.496939    0.044845    0.500760     0.005394
PD2332   PD        0.535889    0.040001    0.538185     0.005394
AU2333   AU        0.577374    0.039346    0.499334     0.007504
PD2334   PD        0.614865    0.040141    0.536385     0.005394
PD2335   PD        0.651509    0.037427    0.501600     0.005394
PD2336   PD        0.194536    0.119417    0.502314     0.005394
PD2337   PD        0.228301    0.079673    0.501851     0.005394
PD2338   PD        0.230943    0.117641    0.536537     0.005394
AU2339   AU        0.267814    0.078649    0.537192     0.007504
PD2340   PD        0.267296    0.116278    0.501295     0.005394
PD2341   PD        0.308323    0.078692    0.500988     0.005394
AU2342   AU        0.304715    0.116027    0.536223     0.007504
AU2343   AU        0.346400    0.080504    0.536595     0.007504
PD2344   PD        0.344472    0.119077    0.502023     0.005394
PD2345   PD        0.385527    0.081493    0.501982     0.005394
PD2346   PD        0.384195    0.117047    0.539051     0.005394
PD2347   PD        0.422418    0.080240    0.538238     0.005394
AU2348   AU        0.423094    0.118806    0.503208     0.007504
PD2349   PD        0.461068    0.080754    0.503225     0.005394
AU2350   AU        0.462254    0.118241    0.536313     0.007504
PD2351   PD        0.499038    0.079762    0.536542     0.005394
AU2352   AU        0.499934    0.122757    0.503849     0.007504
AU2353   AU        0.536969    0.078877    0.503376     0.007504
PD2354   PD        0.538511    0.118913    0.538812     0.005394
PD2355   PD        0.576335    0.079703    0.537663     0.005394
AU2356   AU        0.573512    0.118246    0.501316     0.007504
AU2357   AU        0.615686    0.078027    0.501921     0.007504
AU2358   AU        0.611924    0.117153    0.538037     0.007504
PD2359   PD        0.650379    0.079111    0.538400     0.005394
PD2360   PD        0.649616    0.117672    0.501913     0.005394
PD2361   PD        0.688035    0.078788    0.502471     0.005394
AU2362   AU        0.691800    0.115392    0.536781     0.007504
PD2363   PD        0.728542    0.113804    0.501569     0.005394
AU2364   AU        0.119264    0.197704    0.501020     0.007504
PD2365   PD        0.157927    0.160180    0.504926     0.005394
PD2366   PD        0.157505    0.197358    0.538131     0.005394
PD2367   PD        0.195509    0.153897    0.537513     0.005394
PD2368   PD        0.195521    0.194049    0.500523     0.005394
PD2369   PD        0.230535    0.155262    0.502313     0.005394
PD2370   PD        0.231109    0.193369    0.537248     0.005394
PD2371   PD        0.267762    0.155611    0.537342     0.005394
PD2372   PD        0.268764    0.192865    0.504516     0.005394
PD2373   PD        0.307437    0.154584    0.501565     0.005394
PD2374   PD        0.306604    0.195299    0.537100     0.005394
PD2375   PD        0.345048    0.154091    0.537295     0.005394
AU2376   AU        0.344039    0.194001    0.503169     0.007504
AU2377   AU        0.383316    0.154957    0.501732     0.007504
AU2378   AU        0.384497    0.193364    0.536743     0.007504
AU2379   AU        0.421359    0.155858    0.537969     0.007504
AU2380   AU        0.425842    0.193315    0.500600     0.007504
AU2381   AU        0.462016    0.157307    0.503531     0.007504
PD2382   PD        0.463316    0.192224    0.539547     0.005394
PD2383   PD        0.505178    0.156984    0.537219     0.005394
PD2384   PD        0.504793    0.192056    0.501713     0.005394
PD2385   PD        0.538555    0.156549    0.502105     0.005394
PD2386   PD        0.540469    0.196180    0.537446     0.005394
PD2387   PD        0.574703    0.154986    0.536460     0.005394
AU2388   AU        0.574536    0.195267    0.502425     0.007504
PD2389   PD        0.617724    0.154054    0.502690     0.005394
AU2390   AU        0.615631    0.192777    0.539039     0.007504
PD2391   PD        0.654150    0.155810    0.541766     0.005394
AU2392   AU        0.653852    0.189754    0.504342     0.007504
PD2393   PD        0.691365    0.153755    0.501524     0.005394
PD2394   PD        0.692676    0.192917    0.538317     0.005394
PD2395   PD        0.727571    0.153607    0.539871     0.005394
PD2396   PD        0.729941    0.192308    0.505553     0.005394
AU2397   AU        0.766319    0.150971    0.505746     0.007504
PD2398   PD        0.766397    0.193939    0.539445     0.005394
AU2399   AU        0.804836    0.189127    0.506297     0.007504
PD2400   PD        0.044257    0.274600    0.499331     0.005394
PD2401   PD        0.079928    0.234404    0.501504     0.005394
AU2402   AU        0.078459    0.270337    0.535476     0.007504
PD2403   PD        0.118813    0.233419    0.539400     0.005394
AU2404   AU        0.118104    0.272211    0.499859     0.007504
PD2405   PD        0.156462    0.234095    0.501742     0.005394
PD2406   PD        0.154599    0.271375    0.538647     0.005394
PD2407   PD        0.194230    0.231775    0.537228     0.005394
PD2408   PD        0.194376    0.270767    0.503199     0.005394
PD2409   PD        0.232395    0.231458    0.500728     0.005394
AU2410   AU        0.232152    0.271062    0.538127     0.007504
PD2411   PD        0.266989    0.229013    0.536992     0.005394
PD2412   PD        0.268996    0.270465    0.501267     0.005394
PD2413   PD        0.305476    0.231391    0.500259     0.005394
AU2414   AU        0.304840    0.270332    0.536163     0.007504
AU2415   AU        0.347846    0.229635    0.540305     0.007504
AU2416   AU        0.345629    0.267890    0.502823     0.007504
AU2417   AU        0.386136    0.231491    0.500298     0.007504
AU2418   AU        0.385894    0.269861    0.539295     0.007504
AU2419   AU        0.424774    0.231376    0.537376     0.007504
PD2420   PD        0.423711    0.271041    0.500458     0.005394
AU2421   AU        0.463851    0.229329    0.503179     0.007504
AU2422   AU        0.461846    0.269822    0.539359     0.007504
PD2423   PD        0.501801    0.229100    0.538880     0.005394
AU2424   AU        0.500169    0.268070    0.501466     0.007504
PD2425   PD        0.537559    0.233857    0.500172     0.005394
AU2426   AU        0.538562    0.270656    0.537350     0.007504
PD2427   PD        0.576996    0.235154    0.537995     0.005394
AU2428   AU        0.577461    0.270103    0.501123     0.007504
PD2429   PD        0.616022    0.228384    0.504284     0.005394
AU2430   AU        0.615646    0.269696    0.537377     0.007504
PD2431   PD        0.655341    0.230997    0.539721     0.005394
AU2432   AU        0.653406    0.265683    0.503292     0.007504
AU2433   AU        0.693980    0.231365    0.503355     0.007504
PD2434   PD        0.692437    0.268074    0.538234     0.005394
PD2435   PD        0.729168    0.232488    0.541153     0.005394
AU2436   AU        0.732509    0.270551    0.504172     0.007504
PD2437   PD        0.768124    0.230218    0.504080     0.005394
PD2438   PD        0.765885    0.270094    0.538754     0.005394
AU2439   AU        0.805376    0.230219    0.541061     0.007504
AU2440   AU        0.806886    0.268268    0.505282     0.007504
AU2441   AU        0.846961    0.230500    0.504420     0.007504
AU2442   AU        0.843595    0.268653    0.540124     0.007504
AU2443   AU        0.882873    0.270591    0.504984     0.007504
PD2444   PD        0.041857    0.312167    0.534749     0.005394
AU2445   AU        0.038876    0.349328    0.500724     0.007504
PD2446   PD        0.080336    0.312915    0.501745     0.005394
PD2447   PD        0.079104    0.348190    0.536861     0.005394
PD2448   PD        0.119322    0.308416    0.536161     0.005394
PD2449   PD        0.118891    0.349558    0.501842     0.005394
PD2450   PD        0.156662    0.308981    0.505674     0.005394
AU2451   AU        0.158389    0.348431    0.536639     0.007504
AU2452   AU        0.194736    0.310661    0.539550     0.007504
PD2453   PD        0.195060    0.348642    0.501799     0.005394
AU2454   AU        0.231156    0.309592    0.501456     0.007504
AU2455   AU        0.232915    0.349557    0.540653     0.007504
AU2456   AU        0.268039    0.307828    0.540208     0.007504
AU2457   AU        0.267372    0.347029    0.502937     0.007504
AU2458   AU        0.306719    0.309190    0.501606     0.007504
PD2459   PD        0.306928    0.345009    0.540686     0.005394
PD2460   PD        0.343796    0.308270    0.536749     0.005394
AU2461   AU        0.344866    0.345891    0.503832     0.007504
AU2462   AU        0.387175    0.307196    0.503973     0.007504
PD2463   PD        0.385507    0.347813    0.539948     0.005394
AU2464   AU        0.424515    0.306199    0.537213     0.007504
PD2465   PD        0.422025    0.345855    0.502637     0.005394
AU2466   AU        0.459953    0.308243    0.503082     0.007504
AU2467   AU        0.461300    0.347346    0.537926     0.007504
AU2468   AU        0.499565    0.305712    0.537349     0.007504
AU2469   AU        0.502114    0.345979    0.502150     0.007504
AU2470   AU        0.539073    0.306950    0.503953     0.007504
AU2471   AU        0.539721    0.344650    0.539243     0.007504
AU2472   AU        0.579308    0.308164    0.535954     0.007504
PD2473   PD        0.578033    0.346685    0.502843     0.005394
AU2474   AU        0.618727    0.309323    0.502953     0.007504
AU2475   AU        0.618017    0.343915    0.540987     0.007504
PD2476   PD        0.656065    0.306187    0.538624     0.005394
AU2477   AU        0.655792    0.346662    0.503378     0.007504
AU2478   AU        0.691013    0.306367    0.501533     0.007504
AU2479   AU        0.691464    0.345843    0.541142     0.007504
PD2480   PD        0.729790    0.308893    0.541259     0.005394
AU2481   AU        0.727729    0.343628    0.504265     0.007504
PD2482   PD        0.767534    0.307511    0.504704     0.005394
AU2483   AU        0.765993    0.345385    0.538587     0.007504
PD2484   PD        0.805633    0.309187    0.539059     0.005394
PD2485   PD        0.806821    0.344052    0.503640     0.005394
PD2486   PD        0.842745    0.307055    0.505547     0.005394
PD2487   PD        0.844253    0.347891    0.538351     0.005394
AU2488   AU        0.885263    0.309212    0.538699     0.007504
PD2489   PD        0.878471    0.347992    0.502752     0.005394
AU2490   AU        0.044402    0.387430    0.535893     0.007504
PD2491   PD        0.042169    0.425185    0.501673     0.005394
PD2492   PD        0.081351    0.389026    0.501098     0.005394
PD2493   PD        0.080702    0.426684    0.535991     0.005394
AU2494   AU        0.118436    0.384668    0.537299     0.007504
AU2495   AU        0.118155    0.426851    0.499673     0.007504
AU2496   AU        0.156909    0.387545    0.501582     0.007504
AU2497   AU        0.156671    0.424553    0.538608     0.007504
PD2498   PD        0.194037    0.388484    0.539172     0.005394
AU2499   AU        0.194526    0.426777    0.499321     0.007504
AU2500   AU        0.231497    0.387057    0.502354     0.007504
AU2501   AU        0.229034    0.424186    0.539913     0.007504
PD2502   PD        0.270875    0.389207    0.539842     0.005394
AU2503   AU        0.269776    0.425356    0.504265     0.007504
AU2504   AU        0.306680    0.384388    0.504151     0.007504
PD2505   PD        0.308445    0.426571    0.539889     0.005394
AU2506   AU        0.346450    0.387472    0.538617     0.007504
AU2507   AU        0.347549    0.423580    0.501928     0.007504
AU2508   AU        0.387009    0.383809    0.505215     0.007504
AU2509   AU        0.385627    0.426183    0.538311     0.007504
PD2510   PD        0.423478    0.384171    0.539306     0.005394
PD2511   PD        0.424665    0.425140    0.502969     0.005394
AU2512   AU        0.462968    0.382130    0.503241     0.007504
AU2513   AU        0.461005    0.424452    0.536763     0.007504
AU2514   AU        0.503484    0.383772    0.539328     0.007504
AU2515   AU        0.504786    0.421734    0.504304     0.007504
AU2516   AU        0.541241    0.385175    0.503610     0.007504
PD2517   PD        0.541505    0.423512    0.538629     0.005394
AU2518   AU        0.578357    0.382297    0.540780     0.007504
AU2519   AU        0.580037    0.421827    0.507326     0.007504
PD2520   PD        0.617696    0.381661    0.504083     0.005394
PD2521   PD        0.619355    0.421426    0.539905     0.005394
PD2522   PD        0.653975    0.382908    0.540287     0.005394
PD2523   PD        0.653363    0.419776    0.502653     0.005394
AU2524   AU        0.691981    0.385282    0.503158     0.007504
PD2525   PD        0.690451    0.423520    0.537901     0.005394
PD2526   PD        0.730218    0.386498    0.540839     0.005394
AU2527   AU        0.727322    0.422945    0.503392     0.007504
PD2528   PD        0.767297    0.382088    0.505202     0.005394
PD2529   PD        0.768568    0.423235    0.540329     0.005394
PD2530   PD        0.806042    0.381910    0.539547     0.005394
AU2531   AU        0.806810    0.423061    0.503051     0.007504
PD2532   PD        0.841380    0.384974    0.503788     0.005394
PD2533   PD        0.842929    0.420324    0.538003     0.005394
AU2534   AU        0.882471    0.383691    0.540418     0.007504
AU2535   AU        0.883838    0.422053    0.505040     0.007504
PD2536   PD        0.006199    0.466803    0.501950     0.005394
AU2537   AU        0.044334    0.464845    0.535348     0.007504
PD2538   PD        0.044354    0.505645    0.502742     0.005394
PD2539   PD        0.081898    0.465545    0.500305     0.005394
PD2540   PD        0.081891    0.501091    0.536051     0.005394
PD2541   PD        0.118377    0.460979    0.535782     0.005394
PD2542   PD        0.119308    0.502548    0.505104     0.005394
AU2543   AU        0.156144    0.463794    0.501254     0.007504
AU2544   AU        0.155596    0.502610    0.538244     0.007504
AU2545   AU        0.192829    0.462618    0.537720     0.007504
PD2546   PD        0.192932    0.500999    0.502902     0.005394
AU2547   AU        0.232031    0.461888    0.500748     0.007504
PD2548   PD        0.231229    0.500110    0.536279     0.005394
AU2549   AU        0.269447    0.463822    0.538552     0.007504
AU2550   AU        0.269269    0.502117    0.502882     0.007504
AU2551   AU        0.310689    0.463443    0.500209     0.007504
AU2552   AU        0.306934    0.501395    0.537050     0.007504
AU2553   AU        0.346420    0.464895    0.538754     0.007504
AU2554   AU        0.350351    0.503009    0.501316     0.007504
AU2555   AU        0.385811    0.462789    0.503577     0.007504
AU2556   AU        0.384611    0.504498    0.539831     0.007504
AU2557   AU        0.425379    0.466234    0.539650     0.007504
AU2558   AU        0.425701    0.502659    0.504270     0.007504
AU2559   AU        0.463036    0.464986    0.503451     0.007504
AU2560   AU        0.462166    0.503070    0.539863     0.007504
AU2561   AU        0.500149    0.462935    0.537817     0.007504
AU2562   AU        0.501202    0.502659    0.506457     0.007504
AU2563   AU        0.541024    0.463415    0.503331     0.007504
AU2564   AU        0.540873    0.500695    0.540021     0.007504
AU2565   AU        0.579407    0.460352    0.539671     0.007504
AU2566   AU        0.579758    0.501945    0.504130     0.007504
AU2567   AU        0.618398    0.460730    0.502118     0.007504
AU2568   AU        0.613693    0.500066    0.542159     0.007504
AU2569   AU        0.653452    0.462112    0.537826     0.007504
PD2570   PD        0.651628    0.498535    0.505726     0.005394
AU2571   AU        0.690148    0.461817    0.504259     0.007504
PD2572   PD        0.691330    0.500015    0.538043     0.005394
AU2573   AU        0.730996    0.462279    0.538651     0.007504
PD2574   PD        0.730247    0.498622    0.505458     0.005394
AU2575   AU        0.768459    0.462162    0.502697     0.007504
PD2576   PD        0.766705    0.500756    0.540879     0.005394
PD2577   PD        0.805849    0.460635    0.538554     0.005394
AU2578   AU        0.807053    0.501016    0.503321     0.007504
PD2579   PD        0.847625    0.462246    0.503006     0.005394
PD2580   PD        0.842811    0.498773    0.541218     0.005394
AU2581   AU        0.882484    0.457505    0.540798     0.007504
PD2582   PD        0.881778    0.496700    0.505402     0.005394
PD2583   PD        0.919342    0.461990    0.501609     0.005394
PD2584   PD        0.041422    0.542710    0.538805     0.005394
PD2585   PD        0.044076    0.580169    0.500265     0.005394
AU2586   AU        0.079497    0.542406    0.503407     0.007504
PD2587   PD        0.081250    0.580155    0.537139     0.005394
PD2588   PD        0.116469    0.538602    0.537440     0.005394
PD2589   PD        0.120877    0.577982    0.501229     0.005394
AU2590   AU        0.158693    0.539912    0.501664     0.007504
AU2591   AU        0.155633    0.576060    0.537876     0.007504
PD2592   PD        0.197604    0.536684    0.537655     0.005394
PD2593   PD        0.194718    0.577437    0.505248     0.005394
PD2594   PD        0.232641    0.541791    0.501363     0.005394
PD2595   PD        0.231430    0.579578    0.538304     0.005394
AU2596   AU        0.268297    0.541899    0.536281     0.007504
AU2597   AU        0.271555    0.578833    0.502116     0.007504
AU2598   AU        0.309905    0.540449    0.500387     0.007504
AU2599   AU        0.310174    0.582342    0.538488     0.007504
AU2600   AU        0.343349    0.540921    0.538368     0.007504
AU2601   AU        0.348978    0.575159    0.500554     0.007504
AU2602   AU        0.385765    0.540208    0.500899     0.007504
AU2603   AU        0.386496    0.577638    0.537605     0.007504
AU2604   AU        0.424252    0.541083    0.538270     0.007504
PD2605   PD        0.425985    0.581777    0.503792     0.005394
AU2606   AU        0.461407    0.539916    0.503174     0.007504
AU2607   AU        0.465551    0.580196    0.541378     0.007504
AU2608   AU        0.502249    0.543454    0.540798     0.007504
AU2609   AU        0.502076    0.580516    0.504933     0.007504
AU2610   AU        0.541677    0.541922    0.504237     0.007504
AU2611   AU        0.539870    0.578447    0.539394     0.007504
PD2612   PD        0.577420    0.539415    0.541556     0.005394
AU2613   AU        0.578744    0.577567    0.505119     0.007504
AU2614   AU        0.616511    0.538227    0.507369     0.007504
AU2615   AU        0.615391    0.576172    0.541081     0.007504
AU2616   AU        0.654047    0.538863    0.541166     0.007504
PD2617   PD        0.655347    0.576394    0.505989     0.005394
PD2618   PD        0.693691    0.537186    0.504787     0.005394
PD2619   PD        0.691776    0.576588    0.542239     0.005394
PD2620   PD        0.731584    0.540008    0.541904     0.005394
PD2621   PD        0.730406    0.577799    0.505395     0.005394
AU2622   AU        0.768452    0.538708    0.508715     0.007504
PD2623   PD        0.770398    0.577788    0.541843     0.005394
PD2624   PD        0.807741    0.537871    0.541350     0.005394
PD2625   PD        0.807240    0.576159    0.506155     0.005394
PD2626   PD        0.846024    0.537839    0.504705     0.005394
AU2627   AU        0.849483    0.578589    0.538511     0.007504
PD2628   PD        0.886381    0.537984    0.537921     0.005394
AU2629   AU        0.889242    0.576527    0.504674     0.007504
AU2630   AU        0.041305    0.619297    0.536094     0.007504
AU2631   AU        0.043023    0.658381    0.500521     0.007504
PD2632   PD        0.082159    0.618282    0.503182     0.005394
AU2633   AU        0.079048    0.660109    0.535654     0.007504
AU2634   AU        0.119377    0.618633    0.537763     0.007504
PD2635   PD        0.119191    0.656832    0.502134     0.005394
PD2636   PD        0.156628    0.617869    0.502417     0.005394
PD2637   PD        0.157711    0.655679    0.538749     0.005394
AU2638   AU        0.194217    0.618097    0.538756     0.007504
AU2639   AU        0.194468    0.655341    0.501336     0.007504
AU2640   AU        0.234210    0.615405    0.503635     0.007504
PD2641   PD        0.232822    0.655089    0.539057     0.005394
PD2642   PD        0.272783    0.617906    0.538898     0.005394
PD2643   PD        0.269859    0.653878    0.502113     0.005394
AU2644   AU        0.310607    0.616869    0.502899     0.007504
PD2645   PD        0.311265    0.655148    0.539035     0.005394
AU2646   AU        0.349083    0.618161    0.539368     0.007504
AU2647   AU        0.348163    0.656245    0.507017     0.007504
AU2648   AU        0.385317    0.615934    0.502957     0.007504
PD2649   PD        0.386909    0.658433    0.539738     0.005394
AU2650   AU        0.422291    0.617526    0.539592     0.007504
PD2651   PD        0.424310    0.652492    0.501146     0.005394
AU2652   AU        0.463490    0.616706    0.503369     0.007504
AU2653   AU        0.463022    0.652235    0.540898     0.007504
AU2654   AU        0.503932    0.620494    0.539832     0.007504
AU2655   AU        0.502625    0.654630    0.504574     0.007504
AU2656   AU        0.541543    0.618544    0.504572     0.007504
PD2657   PD        0.540991    0.654374    0.540423     0.005394
AU2658   AU        0.577569    0.616470    0.539184     0.007504
AU2659   AU        0.579111    0.655515    0.502337     0.007504
AU2660   AU        0.617415    0.614143    0.504646     0.007504
AU2661   AU        0.616016    0.655140    0.540085     0.007504
AU2662   AU        0.654496    0.614999    0.540173     0.007504
PD2663   PD        0.654561    0.654491    0.503914     0.005394
PD2664   PD        0.694618    0.614396    0.505702     0.005394
PD2665   PD        0.692074    0.650852    0.541521     0.005394
PD2666   PD        0.729224    0.614315    0.540769     0.005394
PD2667   PD        0.729900    0.651134    0.507424     0.005394
AU2668   AU        0.769069    0.614725    0.503067     0.007504
PD2669   PD        0.767485    0.654539    0.537571     0.005394
PD2670   PD        0.808538    0.616598    0.539012     0.005394
AU2671   AU        0.807349    0.652574    0.503259     0.007504
PD2672   PD        0.845742    0.614702    0.503717     0.005394
AU2673   AU        0.847149    0.656534    0.537939     0.007504
AU2674   AU        0.885968    0.617499    0.539828     0.007504
PD2675   PD        0.884518    0.654796    0.501797     0.005394
PD2676   PD        0.084949    0.698414    0.501501     0.005394
PD2677   PD        0.122012    0.695533    0.536705     0.005394
PD2678   PD        0.123842    0.732891    0.503162     0.005394
PD2679   PD        0.158617    0.692624    0.501680     0.005394
PD2680   PD        0.159103    0.732055    0.538841     0.005394
AU2681   AU        0.195687    0.691433    0.538540     0.007504
AU2682   AU        0.196687    0.731353    0.505656     0.007504
PD2683   PD        0.232320    0.691474    0.501891     0.005394
AU2684   AU        0.233812    0.732628    0.540535     0.007504
AU2685   AU        0.272516    0.694613    0.539783     0.007504
PD2686   PD        0.270855    0.733981    0.503872     0.005394
AU2687   AU        0.307979    0.693544    0.503681     0.007504
AU2688   AU        0.310453    0.732162    0.538935     0.007504
AU2689   AU        0.349134    0.693381    0.541006     0.007504
AU2690   AU        0.349223    0.731099    0.505244     0.007504
AU2691   AU        0.387650    0.692331    0.502722     0.007504
PD2692   PD        0.387891    0.729886    0.537731     0.005394
AU2693   AU        0.426583    0.693433    0.538862     0.007504
AU2694   AU        0.426953    0.730864    0.502893     0.007504
PD2695   PD        0.463074    0.693295    0.502691     0.005394
PD2696   PD        0.464531    0.731695    0.539767     0.005394
AU2697   AU        0.503263    0.691818    0.538772     0.007504
AU2698   AU        0.501745    0.733395    0.503812     0.007504
AU2699   AU        0.540259    0.691921    0.504545     0.007504
AU2700   AU        0.539001    0.732826    0.538856     0.007504
AU2701   AU        0.575896    0.692081    0.538428     0.007504
AU2702   AU        0.577709    0.730885    0.505221     0.007504
AU2703   AU        0.615920    0.691571    0.504711     0.007504
PD2704   PD        0.619421    0.730671    0.541940     0.005394
PD2705   PD        0.654849    0.690158    0.539940     0.005394
PD2706   PD        0.654992    0.727340    0.504833     0.005394
PD2707   PD        0.693975    0.688513    0.504013     0.005394
PD2708   PD        0.692353    0.728786    0.539474     0.005394
AU2709   AU        0.728277    0.689621    0.540265     0.007504
PD2710   PD        0.731849    0.731225    0.505055     0.005394
PD2711   PD        0.765422    0.693596    0.504502     0.005394
AU2712   AU        0.768248    0.728654    0.540198     0.007504
PD2713   PD        0.805100    0.692279    0.538449     0.005394
AU2714   AU        0.806811    0.732504    0.504222     0.007504
PD2715   PD        0.843427    0.690986    0.501596     0.005394
PD2716   PD        0.159867    0.769068    0.503935     0.005394
PD2717   PD        0.194781    0.771410    0.538792     0.005394
AU2718   AU        0.195486    0.814754    0.504193     0.007504
AU2719   AU        0.233325    0.771931    0.504994     0.007504
PD2720   PD        0.233898    0.811286    0.538960     0.005394
PD2721   PD        0.273036    0.771393    0.540231     0.005394
PD2722   PD        0.276245    0.809195    0.504483     0.005394
PD2723   PD        0.311758    0.771166    0.505711     0.005394
PD2724   PD        0.312126    0.808255    0.539987     0.005394
AU2725   AU        0.348825    0.770989    0.541669     0.007504
AU2726   AU        0.349270    0.806846    0.502080     0.007504
AU2727   AU        0.387325    0.770201    0.501742     0.007504
AU2728   AU        0.389352    0.805331    0.535946     0.007504
PD2729   PD        0.426812    0.769256    0.536713     0.005394
PD2730   PD        0.426931    0.808788    0.501267     0.005394
PD2731   PD        0.462428    0.769188    0.502628     0.005394
AU2732   AU        0.464445    0.809035    0.536590     0.007504
PD2733   PD        0.501993    0.773224    0.537489     0.005394
PD2734   PD        0.501272    0.807530    0.500234     0.005394
AU2735   AU        0.540367    0.771256    0.501406     0.007504
PD2736   PD        0.540579    0.808080    0.538483     0.005394
PD2737   PD        0.580217    0.769826    0.539451     0.005394
AU2738   AU        0.580674    0.805610    0.503100     0.007504
PD2739   PD        0.617185    0.765688    0.503818     0.005394
AU2740   AU        0.617928    0.807904    0.537008     0.007504
PD2741   PD        0.657142    0.766211    0.539401     0.005394
AU2742   AU        0.656668    0.808379    0.505494     0.007504
PD2743   PD        0.691632    0.766806    0.501943     0.005394
PD2744   PD        0.692014    0.808669    0.540078     0.005394
PD2745   PD        0.727251    0.769047    0.539779     0.005394
PD2746   PD        0.730576    0.806106    0.504214     0.005394
AU2747   AU        0.768652    0.768979    0.508359     0.007504
AU2748   AU        0.237859    0.849568    0.502205     0.007504
PD2749   PD        0.276197    0.845687    0.537337     0.005394
PD2750   PD        0.277787    0.883521    0.503288     0.005394
PD2751   PD        0.315148    0.844764    0.502987     0.005394
PD2752   PD        0.313625    0.883711    0.537134     0.005394
AU2753   AU        0.350838    0.845710    0.537640     0.007504
PD2754   PD        0.351931    0.882046    0.501685     0.005394
PD2755   PD        0.390105    0.843225    0.502957     0.005394
PD2756   PD        0.389354    0.884895    0.535713     0.005394
PD2757   PD        0.427028    0.844762    0.536976     0.005394
AU2758   AU        0.426289    0.881757    0.501020     0.007504
PD2759   PD        0.463693    0.846071    0.499258     0.005394
AU2760   AU        0.466589    0.880843    0.535755     0.007504
PD2761   PD        0.504318    0.843963    0.536802     0.005394
PD2762   PD        0.503168    0.883584    0.501859     0.005394
AU2763   AU        0.541712    0.844023    0.502812     0.007504
AU2764   AU        0.538364    0.883179    0.538336     0.007504
AU2765   AU        0.578365    0.846458    0.536883     0.007504
PD2766   PD        0.577490    0.881848    0.502780     0.005394
PD2767   PD        0.616381    0.848101    0.500885     0.005394
PD2768   PD        0.615381    0.882161    0.536366     0.005394
PD2769   PD        0.654534    0.846059    0.538486     0.005394
AU2770   AU        0.658472    0.881886    0.502384     0.007504
PD2771   PD        0.695450    0.845126    0.503455     0.005394
PD2772   PD        0.463617    0.920038    0.500807     0.005394
AU2773   AU        0.346493    0.039568    0.572489     0.007504
AU2774   AU        0.382152    0.040748    0.610886     0.007504
PD2775   PD        0.420384    0.042625    0.573474     0.005394
AU2776   AU        0.457718    0.036503    0.609221     0.007504
AU2777   AU        0.495822    0.037753    0.571641     0.007504
AU2778   AU        0.537584    0.038356    0.605931     0.007504
AU2779   AU        0.576756    0.039331    0.573572     0.007504
PD2780   PD        0.193446    0.118375    0.571014     0.005394
PD2781   PD        0.231561    0.118371    0.609233     0.005394
PD2782   PD        0.270601    0.081227    0.609547     0.005394
AU2783   AU        0.269382    0.116519    0.572140     0.007504
AU2784   AU        0.307002    0.078416    0.571995     0.007504
PD2785   PD        0.309890    0.117279    0.610224     0.005394
PD2786   PD        0.345796    0.080859    0.608716     0.005394
PD2787   PD        0.346339    0.118380    0.573487     0.005394
PD2788   PD        0.383491    0.078666    0.572857     0.005394
PD2789   PD        0.384362    0.117790    0.608950     0.005394
AU2790   AU        0.421874    0.079814    0.608192     0.007504
AU2791   AU        0.422838    0.116166    0.571443     0.007504
PD2792   PD        0.460343    0.079743    0.574201     0.005394
PD2793   PD        0.461562    0.117217    0.607998     0.005394
PD2794   PD        0.499243    0.076282    0.605210     0.005394
AU2795   AU        0.497992    0.118028    0.571812     0.007504
PD2796   PD        0.537402    0.080687    0.572113     0.005394
AU2797   AU        0.537598    0.117631    0.606838     0.007504
AU2798   AU        0.573751    0.078866    0.607200     0.007504
PD2799   PD        0.575546    0.117632    0.574284     0.005394
PD2800   PD        0.612455    0.078610    0.573396     0.005394
PD2801   PD        0.613641    0.114514    0.609326     0.005394
AU2802   AU        0.651536    0.077281    0.608004     0.007504
AU2803   AU        0.651865    0.115844    0.572983     0.007504
PD2804   PD        0.686230    0.118051    0.608732     0.005394
PD2805   PD        0.727095    0.117379    0.575947     0.005394
PD2806   PD        0.119259    0.195236    0.573078     0.005394
AU2807   AU        0.151989    0.153805    0.572893     0.007504
PD2808   PD        0.154683    0.193086    0.609883     0.005394
PD2809   PD        0.192113    0.155047    0.607453     0.005394
AU2810   AU        0.195107    0.191466    0.571914     0.007504
PD2811   PD        0.230811    0.154233    0.573467     0.005394
PD2812   PD        0.229740    0.191740    0.608241     0.005394
PD2813   PD        0.269183    0.157740    0.608413     0.005394
AU2814   AU        0.271473    0.193492    0.572345     0.007504
AU2815   AU        0.307668    0.153880    0.574059     0.007504
PD2816   PD        0.307541    0.192788    0.607960     0.005394
PD2817   PD        0.347513    0.154343    0.608866     0.005394
AU2818   AU        0.344995    0.191022    0.572238     0.007504
AU2819   AU        0.384874    0.154820    0.573207     0.007504
PD2820   PD        0.383252    0.191719    0.608755     0.005394
AU2821   AU        0.422795    0.155051    0.608526     0.007504
AU2822   AU        0.422680    0.195143    0.573114     0.007504
AU2823   AU        0.460242    0.154196    0.571740     0.007504
AU2824   AU        0.462066    0.191712    0.608477     0.007504
AU2825   AU        0.500146    0.154529    0.608207     0.007504
PD2826   PD        0.502461    0.194197    0.573380     0.005394
AU2827   AU        0.537841    0.154938    0.573233     0.007504
AU2828   AU        0.538379    0.192453    0.608433     0.007504
PD2829   PD        0.575712    0.157545    0.610132     0.005394
AU2830   AU        0.576780    0.191888    0.571122     0.007504
PD2831   PD        0.611351    0.152752    0.574542     0.005394
PD2832   PD        0.614158    0.193508    0.609854     0.005394
AU2833   AU        0.650986    0.154192    0.606417     0.007504
PD2834   PD        0.652819    0.195056    0.574812     0.005394
PD2835   PD        0.691116    0.154426    0.573483     0.005394
AU2836   AU        0.690234    0.193459    0.608503     0.007504
PD2837   PD        0.726671    0.155689    0.610015     0.005394
PD2838   PD        0.730379    0.192000    0.575221     0.005394
AU2839   AU        0.767796    0.154781    0.573435     0.007504
AU2840   AU        0.765976    0.191683    0.612148     0.007504
PD2841   PD        0.804939    0.192601    0.576802     0.005394
PD2842   PD        0.081206    0.267318    0.606294     0.005394
PD2843   PD        0.119300    0.231448    0.609177     0.005394
PD2844   PD        0.118261    0.271264    0.572951     0.005394
PD2845   PD        0.154758    0.232373    0.574779     0.005394
AU2846   AU        0.155053    0.271105    0.610310     0.007504
PD2847   PD        0.193757    0.228789    0.609011     0.005394
AU2848   AU        0.191800    0.269817    0.574177     0.007504
AU2849   AU        0.231916    0.229752    0.574258     0.007504
AU2850   AU        0.230553    0.268287    0.610258     0.007504
PD2851   PD        0.270430    0.232545    0.610486     0.005394
AU2852   AU        0.269073    0.266712    0.574093     0.007504
PD2853   PD        0.309029    0.233139    0.572269     0.005394
PD2854   PD        0.308487    0.266795    0.608777     0.005394
PD2855   PD        0.347346    0.231552    0.609283     0.005394
PD2856   PD        0.344694    0.269167    0.572539     0.005394
PD2857   PD        0.384735    0.231418    0.575237     0.005394
AU2858   AU        0.382560    0.270501    0.607617     0.007504
AU2859   AU        0.422508    0.228599    0.609467     0.007504
PD2860   PD        0.423969    0.267555    0.573948     0.005394
AU2861   AU        0.463025    0.230336    0.573870     0.007504
AU2862   AU        0.459110    0.267828    0.608959     0.007504
PD2863   PD        0.497937    0.229834    0.613366     0.005394
AU2864   AU        0.500703    0.268356    0.574533     0.007504
PD2865   PD        0.540280    0.231277    0.574616     0.005394
PD2866   PD        0.539411    0.268890    0.611177     0.005394
AU2867   AU        0.576884    0.230206    0.612050     0.007504
AU2868   AU        0.577578    0.270538    0.574456     0.007504
AU2869   AU        0.615689    0.229565    0.573099     0.007504
PD2870   PD        0.612057    0.267366    0.611353     0.005394
AU2871   AU        0.652053    0.231830    0.611107     0.007504
AU2872   AU        0.654368    0.267834    0.575351     0.007504
AU2873   AU        0.691245    0.231583    0.574944     0.007504
AU2874   AU        0.692677    0.268885    0.608471     0.007504
PD2875   PD        0.728798    0.230022    0.612223     0.005394
PD2876   PD        0.731689    0.270706    0.576480     0.005394
AU2877   AU        0.767460    0.230081    0.576652     0.007504
AU2878   AU        0.767590    0.269319    0.612747     0.007504
PD2879   PD        0.804877    0.234200    0.610797     0.005394
PD2880   PD        0.806324    0.268990    0.575840     0.005394
AU2881   AU        0.847075    0.268678    0.607915     0.007504
PD2882   PD        0.040118    0.350391    0.569279     0.005394
AU2883   AU        0.077335    0.307356    0.571880     0.007504
AU2884   AU        0.075582    0.348229    0.607819     0.007504
AU2885   AU        0.115370    0.309672    0.609474     0.007504
AU2886   AU        0.116414    0.346327    0.573482     0.007504
AU2887   AU        0.156688    0.308652    0.572669     0.007504
AU2888   AU        0.157190    0.345326    0.608250     0.007504
AU2889   AU        0.193770    0.307216    0.608356     0.007504
PD2890   PD        0.191584    0.348772    0.572920     0.005394
AU2891   AU        0.231424    0.305579    0.574646     0.007504
PD2892   PD        0.231772    0.348759    0.609105     0.005394
AU2893   AU        0.269995    0.307518    0.610526     0.007504
AU2894   AU        0.270004    0.345919    0.576556     0.007504
PD2895   PD        0.307539    0.305509    0.573679     0.005394
AU2896   AU        0.309906    0.349582    0.612741     0.007504
AU2897   AU        0.341893    0.306097    0.609178     0.007504
AU2898   AU        0.344131    0.346198    0.575758     0.007504
AU2899   AU        0.382349    0.307438    0.572551     0.007504
AU2900   AU        0.385208    0.345899    0.608242     0.007504
AU2901   AU        0.420243    0.308437    0.605760     0.007504
PD2902   PD        0.422450    0.347917    0.572995     0.005394
PD2903   PD        0.460220    0.309652    0.573068     0.005394
AU2904   AU        0.460409    0.346012    0.609917     0.007504
AU2905   AU        0.500610    0.304872    0.609412     0.007504
AU2906   AU        0.502341    0.343447    0.574301     0.007504
PD2907   PD        0.539090    0.304447    0.574537     0.005394
AU2908   AU        0.539693    0.346125    0.609487     0.007504
PD2909   PD        0.576134    0.306116    0.612913     0.005394
AU2910   AU        0.577690    0.341105    0.574650     0.007504
PD2911   PD        0.616937    0.304905    0.575013     0.005394
AU2912   AU        0.611756    0.343323    0.613140     0.007504
AU2913   AU        0.651765    0.306679    0.613058     0.007504
AU2914   AU        0.653484    0.344695    0.577450     0.007504
PD2915   PD        0.692252    0.305785    0.574920     0.005394
PD2916   PD        0.692936    0.341680    0.611032     0.005394
PD2917   PD        0.730659    0.306527    0.609082     0.005394
AU2918   AU        0.730054    0.344278    0.576440     0.007504
PD2919   PD        0.771438    0.305925    0.576742     0.005394
AU2920   AU        0.767459    0.346416    0.610139     0.007504
AU2921   AU        0.809438    0.303735    0.613916     0.007504
PD2922   PD        0.806232    0.343824    0.574309     0.005394
AU2923   AU        0.845775    0.308253    0.573100     0.007504
PD2924   PD        0.843251    0.346483    0.611543     0.005394
PD2925   PD        0.881354    0.347272    0.576567     0.005394
PD2926   PD        0.041528    0.387926    0.608595     0.005394
AU2927   AU        0.039541    0.427251    0.571384     0.007504
AU2928   AU        0.081415    0.388138    0.573495     0.007504
AU2929   AU        0.077401    0.427406    0.609583     0.007504
AU2930   AU        0.118512    0.385266    0.608414     0.007504
AU2931   AU        0.119255    0.425498    0.574075     0.007504
AU2932   AU        0.155949    0.385545    0.572317     0.007504
PD2933   PD        0.157197    0.422544    0.610924     0.005394
PD2934   PD        0.197327    0.386183    0.609108     0.005394
AU2935   AU        0.194921    0.422960    0.576710     0.007504
PD2936   PD        0.232034    0.386345    0.574735     0.005394
PD2937   PD        0.233135    0.423075    0.609823     0.005394
PD2938   PD        0.270095    0.385944    0.608090     0.005394
PD2939   PD        0.271242    0.425979    0.576333     0.005394
AU2940   AU        0.309402    0.388545    0.574436     0.007504
AU2941   AU        0.307825    0.424936    0.612124     0.007504
PD2942   PD        0.346801    0.387302    0.611743     0.005394
AU2943   AU        0.348821    0.426218    0.576094     0.007504
AU2944   AU        0.385576    0.388830    0.573297     0.007504
AU2945   AU        0.387099    0.423766    0.611205     0.007504
AU2946   AU        0.424650    0.388708    0.611162     0.007504
AU2947   AU        0.425748    0.423207    0.573179     0.007504
AU2948   AU        0.464147    0.385354    0.573456     0.007504
PD2949   PD        0.461883    0.422404    0.610129     0.005394
AU2950   AU        0.503452    0.385884    0.608630     0.007504
AU2951   AU        0.502514    0.423024    0.572643     0.007504
AU2952   AU        0.540691    0.383958    0.575394     0.007504
AU2953   AU        0.539900    0.424621    0.609371     0.007504
AU2954   AU        0.579171    0.386963    0.609581     0.007504
AU2955   AU        0.581440    0.420879    0.574824     0.007504
AU2956   AU        0.615017    0.381464    0.574560     0.007504
AU2957   AU        0.618519    0.422970    0.613115     0.007504
AU2958   AU        0.652195    0.381704    0.608602     0.007504
PD2959   PD        0.657664    0.422787    0.574445     0.005394
AU2960   AU        0.691989    0.383605    0.575657     0.007504
AU2961   AU        0.687351    0.422262    0.615339     0.007504
AU2962   AU        0.728904    0.385548    0.610454     0.007504
PD2963   PD        0.729316    0.419792    0.575516     0.005394
AU2964   AU        0.768984    0.384386    0.574171     0.007504
AU2965   AU        0.767773    0.422924    0.611062     0.007504
PD2966   PD        0.805692    0.382321    0.609474     0.005394
PD2967   PD        0.804685    0.422677    0.576840     0.005394
AU2968   AU        0.839997    0.384027    0.574555     0.007504
AU2969   AU        0.842756    0.420966    0.611278     0.007504
AU2970   AU        0.879967    0.386481    0.613068     0.007504
PD2971   PD        0.879290    0.420370    0.574437     0.005394
PD2972   PD        0.041221    0.467318    0.604275     0.005394
PD2973   PD        0.044996    0.501398    0.568269     0.005394
PD2974   PD        0.082588    0.463036    0.571533     0.005394
AU2975   AU        0.079419    0.502576    0.604332     0.007504
AU2976   AU        0.119717    0.463300    0.607829     0.007504
PD2977   PD        0.117130    0.502466    0.571426     0.005394
PD2978   PD        0.156641    0.462906    0.574847     0.005394
AU2979   AU        0.157012    0.502172    0.608535     0.007504
PD2980   PD        0.194817    0.460126    0.610659     0.005394
AU2981   AU        0.195248    0.502100    0.574267     0.007504
AU2982   AU        0.232080    0.462814    0.571917     0.007504
AU2983   AU        0.231481    0.501393    0.611402     0.007504
AU2984   AU        0.266960    0.463943    0.611029     0.007504
AU2985   AU        0.267798    0.501030    0.571045     0.007504
AU2986   AU        0.308022    0.463975    0.576340     0.007504
PD2987   PD        0.308416    0.502501    0.608134     0.005394
AU2988   AU        0.345816    0.463291    0.610341     0.007504
AU2989   AU        0.347984    0.503025    0.573827     0.007504
AU2990   AU        0.387712    0.464266    0.576604     0.007504
PD2991   PD        0.384217    0.501631    0.610265     0.005394
AU2992   AU        0.427081    0.461421    0.611965     0.007504
PD2993   PD        0.424322    0.500613    0.575976     0.005394
AU2994   AU        0.462764    0.463267    0.572128     0.007504
AU2995   AU        0.463815    0.499780    0.610532     0.007504
AU2996   AU        0.501175    0.461080    0.610094     0.007504
AU2997   AU        0.500822    0.503340    0.575618     0.007504
AU2998   AU        0.540312    0.462328    0.574403     0.007504
AU2999   AU        0.539258    0.499429    0.611208     0.007504
AU3000   AU        0.580512    0.461863    0.611132     0.007504
PD3001   PD        0.577736    0.498954    0.574923     0.005394
AU3002   AU        0.619217    0.460067    0.572951     0.007504
PD3003   PD        0.617104    0.496656    0.610163     0.005394
PD3004   PD        0.654226    0.461747    0.609727     0.005394
AU3005   AU        0.653334    0.500877    0.577108     0.007504
PD3006   PD        0.694567    0.459133    0.573678     0.005394
AU3007   AU        0.693707    0.498867    0.613118     0.007504
PD3008   PD        0.729592    0.460726    0.613609     0.005394
AU3009   AU        0.728735    0.498741    0.573988     0.007504
AU3010   AU        0.766937    0.461071    0.575140     0.007504
AU3011   AU        0.766216    0.497219    0.611144     0.007504
AU3012   AU        0.806641    0.458386    0.612974     0.007504
AU3013   AU        0.803691    0.497042    0.576603     0.007504
PD3014   PD        0.843243    0.459369    0.572933     0.005394
AU3015   AU        0.845598    0.497877    0.612441     0.007504
PD3016   PD        0.880343    0.457307    0.610481     0.005394
AU3017   AU        0.885619    0.495887    0.575530     0.007504
AU3018   AU        0.039961    0.542013    0.604972     0.007504
PD3019   PD        0.042519    0.580096    0.570550     0.005394
PD3020   PD        0.081474    0.543121    0.572002     0.005394
PD3021   PD        0.079156    0.577446    0.607350     0.005394
PD3022   PD        0.116578    0.540377    0.607823     0.005394
AU3023   AU        0.118460    0.579909    0.574114     0.007504
AU3024   AU        0.156759    0.539329    0.572760     0.007504
AU3025   AU        0.156020    0.581993    0.609850     0.007504
PD3026   PD        0.197466    0.541315    0.608295     0.005394
PD3027   PD        0.191597    0.580607    0.574573     0.005394
AU3028   AU        0.232271    0.543356    0.574709     0.007504
PD3029   PD        0.234428    0.577653    0.608972     0.005394
AU3030   AU        0.269681    0.540164    0.609145     0.007504
PD3031   PD        0.270655    0.578795    0.572149     0.005394
AU3032   AU        0.306933    0.542508    0.571770     0.007504
PD3033   PD        0.307144    0.578498    0.609623     0.005394
AU3034   AU        0.345004    0.542146    0.610839     0.007504
PD3035   PD        0.345760    0.580286    0.576538     0.005394
AU3036   AU        0.387571    0.543981    0.574954     0.007504
AU3037   AU        0.384902    0.578800    0.609848     0.007504
PD3038   PD        0.425828    0.538618    0.613091     0.005394
AU3039   AU        0.424107    0.581756    0.575421     0.007504
AU3040   AU        0.461643    0.542119    0.577733     0.007504
AU3041   AU        0.462249    0.579484    0.612228     0.007504
PD3042   PD        0.501330    0.539126    0.610699     0.005394
PD3043   PD        0.503863    0.578623    0.576321     0.005394
PD3044   PD        0.541495    0.540947    0.575766     0.005394
AU3045   AU        0.539367    0.577832    0.612578     0.007504
AU3046   AU        0.577693    0.538115    0.612601     0.007504
AU3047   AU        0.576860    0.576959    0.576755     0.007504
PD3048   PD        0.612170    0.536867    0.577402     0.005394
PD3049   PD        0.617180    0.578890    0.610192     0.005394
PD3050   PD        0.653353    0.538224    0.611354     0.005394
PD3051   PD        0.655553    0.573993    0.575816     0.005394
PD3052   PD        0.691634    0.534969    0.576982     0.005394
AU3053   AU        0.693281    0.576551    0.610243     0.007504
AU3054   AU        0.730585    0.539466    0.613492     0.007504
AU3055   AU        0.732371    0.574381    0.574898     0.007504
PD3056   PD        0.767060    0.539198    0.575960     0.005394
AU3057   AU        0.768163    0.576767    0.609448     0.007504
AU3058   AU        0.805240    0.538157    0.611265     0.007504
AU3059   AU        0.810252    0.577451    0.572917     0.007504
AU3060   AU        0.845917    0.535509    0.574325     0.007504
AU3061   AU        0.845175    0.576668    0.611951     0.007504
PD3062   PD        0.882062    0.535707    0.612894     0.005394
AU3063   AU        0.886793    0.572859    0.575943     0.007504
AU3064   AU        0.076735    0.621381    0.571527     0.007504
AU3065   AU        0.080298    0.659784    0.608569     0.007504
PD3066   PD        0.119369    0.618334    0.609247     0.005394
PD3067   PD        0.117802    0.655347    0.573359     0.005394
PD3068   PD        0.156765    0.619715    0.574863     0.005394
PD3069   PD        0.156014    0.655624    0.610675     0.005394
PD3070   PD        0.195078    0.617892    0.610044     0.005394
PD3071   PD        0.194300    0.653469    0.574286     0.005394
AU3072   AU        0.232332    0.617002    0.572378     0.007504
AU3073   AU        0.234896    0.657412    0.612553     0.007504
AU3074   AU        0.272092    0.618811    0.610647     0.007504
AU3075   AU        0.269961    0.655997    0.575468     0.007504
AU3076   AU        0.308472    0.616241    0.574739     0.007504
AU3077   AU        0.310138    0.657908    0.611328     0.007504
PD3078   PD        0.346787    0.616829    0.612308     0.005394
AU3079   AU        0.346235    0.652716    0.575016     0.007504
AU3080   AU        0.384075    0.617782    0.575650     0.007504
PD3081   PD        0.386624    0.655698    0.608118     0.005394
PD3082   PD        0.426067    0.621904    0.611084     0.005394
AU3083   AU        0.425471    0.656398    0.574755     0.007504
AU3084   AU        0.464388    0.617058    0.577157     0.007504
AU3085   AU        0.461799    0.657888    0.613463     0.007504
PD3086   PD        0.500593    0.617983    0.613340     0.005394
PD3087   PD        0.502828    0.654735    0.576154     0.005394
PD3088   PD        0.539421    0.618362    0.578577     0.005394
AU3089   AU        0.539869    0.656666    0.612245     0.007504
AU3090   AU        0.579428    0.619017    0.608711     0.007504
PD3091   PD        0.578413    0.655914    0.573357     0.005394
AU3092   AU        0.616856    0.616419    0.574918     0.007504
PD3093   PD        0.616489    0.654369    0.609643     0.005394
AU3094   AU        0.654392    0.614136    0.610862     0.007504
PD3095   PD        0.654769    0.654444    0.577551     0.005394
AU3096   AU        0.691013    0.616559    0.577057     0.007504
PD3097   PD        0.694521    0.656295    0.611290     0.005394
AU3098   AU        0.731594    0.614698    0.609895     0.007504
AU3099   AU        0.732229    0.653418    0.575568     0.007504
AU3100   AU        0.771057    0.618484    0.574683     0.007504
AU3101   AU        0.769917    0.652737    0.610472     0.007504
AU3102   AU        0.808470    0.615251    0.612628     0.007504
AU3103   AU        0.812348    0.656733    0.576352     0.007504
AU3104   AU        0.846693    0.617130    0.576006     0.007504
PD3105   PD        0.846774    0.651867    0.614941     0.005394
PD3106   PD        0.120530    0.695650    0.607937     0.005394
PD3107   PD        0.123039    0.729620    0.573616     0.005394
PD3108   PD        0.158062    0.689917    0.573289     0.005394
PD3109   PD        0.158091    0.731170    0.607893     0.005394
AU3110   AU        0.194507    0.689681    0.609108     0.007504
PD3111   PD        0.194380    0.729519    0.573301     0.005394
AU3112   AU        0.234052    0.695039    0.574052     0.007504
PD3113   PD        0.233867    0.728992    0.610137     0.005394
PD3114   PD        0.271243    0.693204    0.612278     0.005394
PD3115   PD        0.274826    0.731199    0.578455     0.005394
AU3116   AU        0.308781    0.693566    0.576934     0.007504
PD3117   PD        0.311591    0.734842    0.611136     0.005394
AU3118   AU        0.347718    0.692850    0.610147     0.007504
AU3119   AU        0.348330    0.730314    0.575154     0.007504
PD3120   PD        0.387229    0.694490    0.576782     0.005394
PD3121   PD        0.388767    0.732361    0.610533     0.005394
PD3122   PD        0.424513    0.693096    0.611534     0.005394
PD3123   PD        0.426283    0.731042    0.574090     0.005394
AU3124   AU        0.462973    0.694735    0.573667     0.007504
PD3125   PD        0.465465    0.730672    0.611495     0.005394
PD3126   PD        0.503057    0.694492    0.610948     0.005394
AU3127   AU        0.503639    0.731985    0.573533     0.007504
AU3128   AU        0.541711    0.692330    0.575562     0.007504
AU3129   AU        0.538891    0.731360    0.612348     0.007504
AU3130   AU        0.581325    0.694663    0.612065     0.007504
PD3131   PD        0.581156    0.730070    0.573510     0.005394
PD3132   PD        0.616433    0.693287    0.573789     0.005394
AU3133   AU        0.617320    0.732164    0.612827     0.007504
AU3134   AU        0.653010    0.691098    0.610226     0.007504
AU3135   AU        0.658436    0.730409    0.575386     0.007504
PD3136   PD        0.691646    0.691131    0.573891     0.005394
PD3137   PD        0.695152    0.728438    0.611539     0.005394
PD3138   PD        0.733423    0.689913    0.611868     0.005394
AU3139   AU        0.728397    0.730685    0.574463     0.007504
AU3140   AU        0.769398    0.692794    0.576590     0.007504
PD3141   PD        0.765075    0.730375    0.611249     0.005394
AU3142   AU        0.809590    0.694056    0.610691     0.007504
AU3143   AU        0.808897    0.730866    0.572789     0.007504
PD3144   PD        0.159000    0.769786    0.572977     0.005394
PD3145   PD        0.197180    0.767781    0.606766     0.005394
PD3146   PD        0.195462    0.809070    0.573572     0.005394
AU3147   AU        0.235275    0.769415    0.573772     0.007504
AU3148   AU        0.233084    0.810144    0.608937     0.007504
AU3149   AU        0.271943    0.771815    0.610149     0.007504
PD3150   PD        0.274235    0.808618    0.576451     0.005394
PD3151   PD        0.309701    0.770885    0.574627     0.005394
PD3152   PD        0.312026    0.807269    0.610531     0.005394
PD3153   PD        0.350120    0.770955    0.609431     0.005394
PD3154   PD        0.349155    0.807916    0.575979     0.005394
AU3155   AU        0.387827    0.770590    0.574473     0.007504
PD3156   PD        0.385990    0.809088    0.606848     0.005394
AU3157   AU        0.424681    0.773554    0.606463     0.007504
PD3158   PD        0.427496    0.808856    0.571535     0.005394
AU3159   AU        0.461905    0.767198    0.572057     0.007504
PD3160   PD        0.463678    0.810277    0.609445     0.005394
AU3161   AU        0.499375    0.772398    0.608899     0.007504
PD3162   PD        0.504582    0.807819    0.574221     0.005394
PD3163   PD        0.542569    0.768825    0.572627     0.005394
AU3164   AU        0.542257    0.808666    0.607931     0.007504
PD3165   PD        0.578005    0.770766    0.610956     0.005394
AU3166   AU        0.579490    0.808664    0.573719     0.007504
AU3167   AU        0.617403    0.769038    0.575185     0.007504
AU3168   AU        0.616157    0.807380    0.610444     0.007504
AU3169   AU        0.656988    0.770349    0.611193     0.007504
AU3170   AU        0.657911    0.808428    0.577545     0.007504
PD3171   PD        0.692648    0.769054    0.575978     0.005394
AU3172   AU        0.696306    0.809081    0.614496     0.007504
AU3173   AU        0.731409    0.768979    0.611292     0.007504
PD3174   PD        0.726744    0.807457    0.575017     0.005394
AU3175   AU        0.768677    0.772019    0.574011     0.007504
PD3176   PD        0.272867    0.846249    0.610949     0.005394
PD3177   PD        0.311524    0.844649    0.574446     0.005394
PD3178   PD        0.349525    0.845076    0.608986     0.005394
PD3179   PD        0.350647    0.882172    0.572671     0.005394
AU3180   AU        0.388822    0.843679    0.571897     0.007504
AU3181   AU        0.389895    0.883613    0.605638     0.007504
PD3182   PD        0.426551    0.844431    0.606663     0.005394
AU3183   AU        0.426506    0.884478    0.570171     0.007504
PD3184   PD        0.464338    0.844255    0.572755     0.005394
PD3185   PD        0.461561    0.881466    0.608629     0.005394
PD3186   PD        0.501413    0.847776    0.608868     0.005394
PD3187   PD        0.499125    0.882384    0.574427     0.005394
PD3188   PD        0.540368    0.847557    0.573025     0.005394
PD3189   PD        0.538330    0.882633    0.606806     0.005394
AU3190   AU        0.579491    0.849616    0.610912     0.007504
PD3191   PD        0.578791    0.883187    0.571715     0.005394
AU3192   AU        0.618163    0.846495    0.574211     0.007504
PD3193   PD        0.655480    0.846238    0.614363     0.005394
PD3194   PD        0.270642    0.118142    0.642884     0.005394
AU3195   AU        0.311504    0.116591    0.680999     0.007504
AU3196   AU        0.346929    0.118443    0.644211     0.007504
AU3197   AU        0.384699    0.078843    0.646153     0.007504
PD3198   PD        0.383355    0.118077    0.680157     0.005394
PD3199   PD        0.423661    0.079753    0.680156     0.005394
PD3200   PD        0.421752    0.116563    0.643686     0.005394
AU3201   AU        0.461641    0.076045    0.644443     0.007504
PD3202   PD        0.458969    0.118510    0.678889     0.005394
AU3203   AU        0.496221    0.077421    0.682872     0.007504
AU3204   AU        0.498863    0.113779    0.643433     0.007504
PD3205   PD        0.536064    0.078743    0.641093     0.005394
PD3206   PD        0.537537    0.117670    0.680455     0.005394
AU3207   AU        0.575384    0.115685    0.644453     0.007504
PD3208   PD        0.613081    0.117418    0.680431     0.005394
AU3209   AU        0.649852    0.113526    0.646079     0.007504
PD3210   PD        0.193855    0.191517    0.643498     0.005394
PD3211   PD        0.228640    0.152397    0.644619     0.005394
AU3212   AU        0.229596    0.191844    0.681704     0.007504
PD3213   PD        0.270872    0.153168    0.680679     0.005394
PD3214   PD        0.267580    0.191956    0.644440     0.005394
PD3215   PD        0.305698    0.156450    0.645221     0.005394
PD3216   PD        0.308489    0.193711    0.678806     0.005394
PD3217   PD        0.344754    0.156901    0.678614     0.005394
PD3218   PD        0.344785    0.192234    0.644334     0.005394
PD3219   PD        0.387215    0.154879    0.644874     0.005394
AU3220   AU        0.384077    0.194424    0.679917     0.007504
PD3221   PD        0.423083    0.153020    0.678413     0.005394
PD3222   PD        0.419813    0.192934    0.644335     0.005394
PD3223   PD        0.460799    0.155373    0.644168     0.005394
PD3224   PD        0.457490    0.193597    0.678182     0.005394
AU3225   AU        0.498908    0.153444    0.679476     0.007504
PD3226   PD        0.497741    0.193624    0.647046     0.005394
PD3227   PD        0.535186    0.155171    0.643959     0.005394
PD3228   PD        0.537522    0.192844    0.681061     0.005394
PD3229   PD        0.575291    0.154144    0.681302     0.005394
AU3230   AU        0.574284    0.191249    0.646857     0.007504
AU3231   AU        0.614420    0.153713    0.642442     0.007504
PD3232   PD        0.612595    0.192805    0.681980     0.005394
PD3233   PD        0.650297    0.156607    0.680771     0.005394
PD3234   PD        0.653011    0.193851    0.645707     0.005394
PD3235   PD        0.690087    0.154240    0.645101     0.005394
PD3236   PD        0.688393    0.195747    0.683389     0.005394
AU3237   AU        0.726518    0.192661    0.647577     0.007504
PD3238   PD        0.118849    0.269189    0.641324     0.005394
PD3239   PD        0.156902    0.234642    0.644625     0.005394
PD3240   PD        0.157978    0.270685    0.679628     0.005394
PD3241   PD        0.193461    0.231355    0.679095     0.005394
PD3242   PD        0.193741    0.270215    0.645124     0.005394
AU3243   AU        0.231639    0.231010    0.643646     0.007504
PD3244   PD        0.233379    0.267745    0.678934     0.005394
PD3245   PD        0.270174    0.231968    0.677696     0.005394
PD3246   PD        0.270229    0.269027    0.643047     0.005394
AU3247   AU        0.309742    0.232684    0.645150     0.007504
AU3248   AU        0.306036    0.270106    0.679851     0.007504
PD3249   PD        0.346373    0.232290    0.681705     0.005394
PD3250   PD        0.344798    0.271138    0.644748     0.005394
AU3251   AU        0.381171    0.232546    0.644649     0.007504
PD3252   PD        0.381756    0.270138    0.682636     0.005394
PD3253   PD        0.420188    0.233035    0.681199     0.005394
PD3254   PD        0.420378    0.268906    0.646095     0.005394
AU3255   AU        0.457739    0.228824    0.643753     0.007504
PD3256   PD        0.461625    0.268093    0.677234     0.005394
AU3257   AU        0.499149    0.230701    0.679611     0.007504
AU3258   AU        0.499007    0.268525    0.644000     0.007504
AU3259   AU        0.536055    0.231080    0.645408     0.007504
PD3260   PD        0.538170    0.270476    0.682007     0.005394
AU3261   AU        0.575552    0.231331    0.682157     0.007504
AU3262   AU        0.576271    0.268272    0.648633     0.007504
PD3263   PD        0.613683    0.229329    0.646309     0.005394
AU3264   AU        0.613820    0.267226    0.683453     0.007504
AU3265   AU        0.650875    0.230255    0.681634     0.007504
PD3266   PD        0.650091    0.269555    0.646213     0.005394
PD3267   PD        0.691982    0.231073    0.646548     0.005394
AU3268   AU        0.690400    0.267400    0.681926     0.007504
PD3269   PD        0.728404    0.231036    0.683824     0.005394
PD3270   PD        0.728790    0.268427    0.646834     0.005394
PD3271   PD        0.766994    0.229405    0.646113     0.005394
AU3272   AU        0.766300    0.268266    0.680439     0.007504
PD3273   PD        0.804446    0.268497    0.647108     0.005394
AU3274   AU        0.116194    0.307140    0.678073     0.007504
PD3275   PD        0.116263    0.348551    0.645081     0.005394
PD3276   PD        0.154112    0.307679    0.644717     0.005394
PD3277   PD        0.157109    0.346817    0.677957     0.005394
PD3278   PD        0.194063    0.307099    0.679316     0.005394
AU3279   AU        0.194654    0.346486    0.642959     0.007504
PD3280   PD        0.232764    0.309398    0.643653     0.005394
PD3281   PD        0.230585    0.345349    0.680356     0.005394
AU3282   AU        0.269686    0.308583    0.680512     0.007504
PD3283   PD        0.271118    0.347910    0.645214     0.005394
PD3284   PD        0.308615    0.305030    0.646402     0.005394
PD3285   PD        0.309544    0.344635    0.680793     0.005394
PD3286   PD        0.344851    0.307405    0.683483     0.005394
AU3287   AU        0.348547    0.343659    0.645106     0.007504
PD3288   PD        0.384710    0.304942    0.645923     0.005394
AU3289   AU        0.386488    0.346230    0.681435     0.007504
AU3290   AU        0.423323    0.304427    0.680376     0.007504
AU3291   AU        0.420861    0.343566    0.643479     0.007504
PD3292   PD        0.460496    0.304874    0.643323     0.005394
AU3293   AU        0.457629    0.342348    0.681169     0.007504
AU3294   AU        0.497690    0.305266    0.679547     0.007504
AU3295   AU        0.498971    0.345359    0.644864     0.007504
AU3296   AU        0.539086    0.306138    0.647094     0.007504
AU3297   AU        0.535758    0.346214    0.681900     0.007504
PD3298   PD        0.578149    0.307181    0.683966     0.005394
PD3299   PD        0.575210    0.344597    0.651255     0.005394
PD3300   PD        0.613393    0.306800    0.649688     0.005394
PD3301   PD        0.613071    0.346313    0.685239     0.005394
AU3302   AU        0.650793    0.306686    0.685559     0.007504
AU3303   AU        0.654525    0.343936    0.645702     0.007504
PD3304   PD        0.691328    0.306365    0.646583     0.005394
AU3305   AU        0.690153    0.343801    0.682337     0.007504
AU3306   AU        0.729434    0.307268    0.682441     0.007504
AU3307   AU        0.729247    0.345882    0.646365     0.007504
AU3308   AU        0.767057    0.307862    0.645959     0.007504
PD3309   PD        0.765992    0.343531    0.681044     0.005394
PD3310   PD        0.804909    0.308103    0.679665     0.005394
PD3311   PD        0.805060    0.346961    0.646039     0.005394
AU3312   AU        0.077490    0.384415    0.645974     0.007504
PD3313   PD        0.080660    0.427690    0.677020     0.005394
PD3314   PD        0.118846    0.388866    0.677461     0.005394
PD3315   PD        0.117908    0.426337    0.642496     0.005394
PD3316   PD        0.156470    0.382591    0.642069     0.005394
PD3317   PD        0.156692    0.422839    0.674534     0.005394
PD3318   PD        0.195425    0.386635    0.678298     0.005394
PD3319   PD        0.195953    0.423052    0.644963     0.005394
PD3320   PD        0.233384    0.385972    0.644809     0.005394
PD3321   PD        0.232780    0.420400    0.682338     0.005394
AU3322   AU        0.268311    0.381799    0.681426     0.007504
PD3323   PD        0.268172    0.425662    0.646761     0.005394
AU3324   AU        0.308365    0.384803    0.647661     0.007504
AU3325   AU        0.306830    0.425317    0.680596     0.007504
AU3326   AU        0.346561    0.384044    0.677901     0.007504
AU3327   AU        0.347186    0.425236    0.646659     0.007504
AU3328   AU        0.383928    0.383533    0.646746     0.007504
PD3329   PD        0.387251    0.424598    0.678952     0.005394
PD3330   PD        0.425199    0.385097    0.677525     0.005394
PD3331   PD        0.425425    0.426792    0.647767     0.005394
AU3332   AU        0.464393    0.389550    0.643223     0.007504
AU3333   AU        0.462336    0.423134    0.681712     0.007504
AU3334   AU        0.496557    0.385092    0.681847     0.007504
PD3335   PD        0.501631    0.421982    0.644980     0.005394
AU3336   AU        0.537991    0.384623    0.645262     0.007504
AU3337   AU        0.538050    0.422750    0.680152     0.007504
PD3338   PD        0.575981    0.382721    0.682475     0.005394
AU3339   AU        0.578880    0.419591    0.646754     0.007504
AU3340   AU        0.616164    0.381786    0.648398     0.007504
AU3341   AU        0.614433    0.421690    0.684020     0.007504
PD3342   PD        0.653915    0.383215    0.683638     0.005394
AU3343   AU        0.651677    0.423201    0.650880     0.007504
AU3344   AU        0.688516    0.383760    0.647540     0.007504
PD3345   PD        0.691257    0.422437    0.681019     0.005394
AU3346   AU        0.727209    0.383358    0.682032     0.007504
PD3347   PD        0.728824    0.423088    0.645357     0.005394
PD3348   PD        0.764897    0.383852    0.644459     0.005394
AU3349   AU        0.766506    0.420261    0.682579     0.007504
PD3350   PD        0.803947    0.383419    0.684936     0.005394
PD3351   PD        0.803160    0.420119    0.647011     0.005394
PD3352   PD        0.839493    0.383825    0.646656     0.005394
AU3353   AU        0.847394    0.421712    0.679855     0.007504
PD3354   PD        0.082124    0.465872    0.641593     0.005394
PD3355   PD        0.081566    0.499524    0.676931     0.005394
PD3356   PD        0.119194    0.461772    0.677848     0.005394
PD3357   PD        0.120310    0.501857    0.641027     0.005394
PD3358   PD        0.156048    0.459742    0.644457     0.005394
PD3359   PD        0.154808    0.500143    0.679467     0.005394
PD3360   PD        0.194075    0.463049    0.677693     0.005394
AU3361   AU        0.195251    0.502950    0.644476     0.007504
PD3362   PD        0.231282    0.463377    0.646591     0.005394
PD3363   PD        0.233984    0.500377    0.681037     0.005394
PD3364   PD        0.266198    0.463188    0.680128     0.005394
AU3365   AU        0.268349    0.503769    0.644796     0.007504
AU3366   AU        0.305627    0.467033    0.646566     0.007504
AU3367   AU        0.306575    0.502602    0.681958     0.007504
AU3368   AU        0.346658    0.464894    0.679392     0.007504
AU3369   AU        0.345234    0.501417    0.645842     0.007504
AU3370   AU        0.387266    0.464339    0.646108     0.007504
PD3371   PD        0.386236    0.502673    0.680508     0.005394
AU3372   AU        0.422609    0.462357    0.682338     0.007504
AU3373   AU        0.425465    0.499000    0.647304     0.007504
PD3374   PD        0.463820    0.461777    0.648131     0.005394
PD3375   PD        0.463911    0.502462    0.681842     0.005394
AU3376   AU        0.499363    0.461539    0.681534     0.007504
AU3377   AU        0.501060    0.500006    0.645842     0.007504
AU3378   AU        0.541518    0.458475    0.645345     0.007504
PD3379   PD        0.539879    0.499004    0.681057     0.005394
AU3380   AU        0.576083    0.460198    0.680912     0.007504
PD3381   PD        0.578535    0.499774    0.646106     0.005394
PD3382   PD        0.617459    0.460132    0.646662     0.005394
PD3383   PD        0.615935    0.496631    0.681953     0.005394
PD3384   PD        0.652328    0.460254    0.683330     0.005394
AU3385   AU        0.654247    0.498944    0.645801     0.007504
AU3386   AU        0.690425    0.460885    0.647307     0.007504
AU3387   AU        0.688209    0.499512    0.683017     0.007504
PD3388   PD        0.727465    0.460779    0.681538     0.005394
PD3389   PD        0.729147    0.503273    0.649232     0.005394
PD3390   PD        0.765350    0.460289    0.647858     0.005394
AU3391   AU        0.767039    0.497847    0.682760     0.007504
AU3392   AU        0.804094    0.459158    0.684829     0.007504
AU3393   AU        0.805190    0.497953    0.646396     0.007504
PD3394   PD        0.841641    0.460783    0.648153     0.005394
AU3395   AU        0.846012    0.495395    0.684592     0.007504
AU3396   AU        0.078180    0.539297    0.642886     0.007504
PD3397   PD        0.117801    0.538161    0.677963     0.005394
PD3398   PD        0.116312    0.580149    0.643915     0.005394
AU3399   AU        0.154576    0.540304    0.643309     0.007504
AU3400   AU        0.155617    0.578113    0.680734     0.007504
AU3401   AU        0.195313    0.536586    0.681262     0.007504
AU3402   AU        0.194101    0.578500    0.643355     0.007504
PD3403   PD        0.229898    0.542247    0.644824     0.005394
PD3404   PD        0.232402    0.580447    0.680597     0.005394
AU3405   AU        0.268785    0.540814    0.679819     0.007504
PD3406   PD        0.270032    0.578991    0.646172     0.005394
PD3407   PD        0.306454    0.538035    0.645908     0.005394
AU3408   AU        0.306367    0.579469    0.680986     0.007504
AU3409   AU        0.345272    0.539684    0.679632     0.007504
AU3410   AU        0.348487    0.578902    0.646005     0.007504
AU3411   AU        0.387367    0.540803    0.646347     0.007504
AU3412   AU        0.387368    0.574928    0.680940     0.007504
AU3413   AU        0.427062    0.539975    0.681316     0.007504
AU3414   AU        0.425168    0.580462    0.645044     0.007504
AU3415   AU        0.463330    0.536624    0.645083     0.007504
PD3416   PD        0.461281    0.577290    0.682517     0.005394
AU3417   AU        0.500397    0.541275    0.679944     0.007504
AU3418   AU        0.501203    0.579615    0.645122     0.007504
AU3419   AU        0.538709    0.537132    0.647771     0.007504
PD3420   PD        0.539776    0.579043    0.681846     0.005394
AU3421   AU        0.578690    0.537277    0.679561     0.007504
AU3422   AU        0.579889    0.577037    0.646583     0.007504
AU3423   AU        0.617387    0.536125    0.647608     0.007504
AU3424   AU        0.616596    0.578060    0.680804     0.007504
AU3425   AU        0.651353    0.539581    0.681576     0.007504
PD3426   PD        0.650937    0.575880    0.646960     0.005394
PD3427   PD        0.689088    0.538775    0.646486     0.005394
AU3428   AU        0.689551    0.575412    0.682896     0.007504
PD3429   PD        0.727680    0.538309    0.684803     0.005394
PD3430   PD        0.729551    0.580035    0.646042     0.005394
AU3431   AU        0.767927    0.538689    0.649826     0.007504
PD3432   PD        0.764529    0.576081    0.683832     0.005394
PD3433   PD        0.807792    0.534499    0.683674     0.005394
PD3434   PD        0.804087    0.576191    0.648751     0.005394
AU3435   AU        0.844284    0.536828    0.647846     0.007504
PD3436   PD        0.118002    0.617083    0.679516     0.005394
AU3437   AU        0.118483    0.655566    0.645827     0.007504
PD3438   PD        0.156156    0.617708    0.645833     0.005394
PD3439   PD        0.155058    0.654692    0.680715     0.005394
PD3440   PD        0.193107    0.618628    0.680438     0.005394
AU3441   AU        0.193047    0.655110    0.648140     0.007504
AU3442   AU        0.233322    0.617146    0.645815     0.007504
PD3443   PD        0.232183    0.656489    0.682024     0.005394
PD3444   PD        0.271232    0.617855    0.682355     0.005394
PD3445   PD        0.269609    0.656474    0.650022     0.005394
PD3446   PD        0.307946    0.618853    0.645280     0.005394
PD3447   PD        0.311220    0.654309    0.681151     0.005394
AU3448   AU        0.349121    0.615262    0.681252     0.007504
AU3449   AU        0.349561    0.656774    0.647646     0.007504
PD3450   PD        0.386995    0.616209    0.645252     0.005394
AU3451   AU        0.385061    0.656033    0.683748     0.007504
AU3452   AU        0.423785    0.617937    0.681704     0.007504
AU3453   AU        0.421319    0.657084    0.645495     0.007504
PD3454   PD        0.462182    0.619800    0.647275     0.005394
AU3455   AU        0.460821    0.655779    0.680925     0.007504
AU3456   AU        0.499387    0.614700    0.683178     0.007504
AU3457   AU        0.503119    0.654083    0.646951     0.007504
PD3458   PD        0.539395    0.617184    0.646652     0.005394
AU3459   AU        0.539712    0.655460    0.682221     0.007504
PD3460   PD        0.578693    0.613562    0.679012     0.005394
AU3461   AU        0.578911    0.655276    0.646320     0.007504
PD3462   PD        0.616670    0.617829    0.644316     0.005394
PD3463   PD        0.617758    0.653163    0.680564     0.005394
AU3464   AU        0.652759    0.615223    0.679998     0.007504
PD3465   PD        0.652160    0.653155    0.646113     0.005394
AU3466   AU        0.693272    0.615269    0.646015     0.007504
PD3467   PD        0.689492    0.652573    0.683052     0.005394
PD3468   PD        0.729466    0.614792    0.683381     0.005394
PD3469   PD        0.730031    0.652810    0.646554     0.005394
PD3470   PD        0.766056    0.616977    0.646201     0.005394
AU3471   AU        0.769633    0.650590    0.681547     0.007504
AU3472   AU        0.805978    0.610290    0.683395     0.007504
PD3473   PD        0.808323    0.654694    0.647178     0.005394
AU3474   AU        0.155315    0.695796    0.645712     0.007504
PD3475   PD        0.192695    0.692158    0.683791     0.005394
AU3476   AU        0.193110    0.731633    0.643236     0.007504
AU3477   AU        0.232322    0.694811    0.646497     0.007504
AU3478   AU        0.230070    0.734133    0.682703     0.007504
PD3479   PD        0.272000    0.694171    0.680703     0.005394
PD3480   PD        0.273066    0.732467    0.646198     0.005394
AU3481   AU        0.308763    0.694729    0.647892     0.007504
AU3482   AU        0.310068    0.732793    0.680595     0.007504
AU3483   AU        0.346957    0.693238    0.683141     0.007504
PD3484   PD        0.348911    0.729980    0.644553     0.005394
PD3485   PD        0.383845    0.694588    0.644234     0.005394
PD3486   PD        0.387640    0.729067    0.680087     0.005394
AU3487   AU        0.423795    0.692804    0.680800     0.007504
AU3488   AU        0.422292    0.732115    0.644608     0.007504
PD3489   PD        0.463543    0.696157    0.646270     0.005394
PD3490   PD        0.461438    0.732069    0.681217     0.005394
AU3491   AU        0.502315    0.695266    0.680103     0.007504
AU3492   AU        0.503955    0.732568    0.645861     0.007504
PD3493   PD        0.542182    0.692633    0.648697     0.005394
AU3494   AU        0.539806    0.734106    0.683078     0.007504
PD3495   PD        0.577286    0.693361    0.681415     0.005394
AU3496   AU        0.577314    0.732977    0.647306     0.007504
PD3497   PD        0.614680    0.692885    0.646066     0.005394
PD3498   PD        0.615617    0.731805    0.678107     0.005394
AU3499   AU        0.653569    0.693609    0.684635     0.007504
AU3500   AU        0.658987    0.730242    0.644948     0.007504
PD3501   PD        0.693676    0.691697    0.648296     0.005394
PD3502   PD        0.692975    0.729395    0.683389     0.005394
AU3503   AU        0.729746    0.689775    0.683156     0.007504
PD3504   PD        0.731555    0.732323    0.647324     0.005394
AU3505   AU        0.770346    0.690335    0.644773     0.007504
PD3506   PD        0.233822    0.768909    0.642083     0.005394
AU3507   AU        0.270084    0.771910    0.679328     0.007504
PD3508   PD        0.273059    0.809316    0.644512     0.005394
PD3509   PD        0.310852    0.768729    0.645733     0.005394
PD3510   PD        0.315254    0.809218    0.673461     0.005394
AU3511   AU        0.351520    0.769442    0.679429     0.007504
PD3512   PD        0.354286    0.805814    0.643215     0.005394
PD3513   PD        0.387239    0.769128    0.643278     0.005394
PD3514   PD        0.387090    0.809668    0.682293     0.005394
AU3515   AU        0.423878    0.768177    0.680389     0.007504
AU3516   AU        0.423011    0.807861    0.645011     0.007504
AU3517   AU        0.461109    0.769415    0.644406     0.007504
PD3518   PD        0.460897    0.808692    0.681937     0.005394
AU3519   AU        0.499649    0.772508    0.679675     0.007504
AU3520   AU        0.499075    0.808517    0.646139     0.007504
PD3521   PD        0.540491    0.773531    0.646215     0.005394
AU3522   AU        0.541067    0.812295    0.682169     0.007504
PD3523   PD        0.578005    0.770844    0.680465     0.005394
PD3524   PD        0.579822    0.808877    0.645299     0.005394
PD3525   PD        0.616210    0.770868    0.646627     0.005394
PD3526   PD        0.618752    0.806712    0.680812     0.005394
PD3527   PD        0.653992    0.768380    0.682182     0.005394
PD3528   PD        0.656353    0.804821    0.647203     0.005394
PD3529   PD        0.695834    0.770328    0.647832     0.005394
AU3530   AU        0.388995    0.846591    0.644796     0.007504
PD3531   PD        0.427771    0.845813    0.681482     0.005394
PD3532   PD        0.462630    0.846931    0.645090     0.005394
PD3533   PD        0.499974    0.847723    0.679192     0.005394
AU3534   AU        0.539294    0.846936    0.643163     0.007504
AU3535   AU        0.424206    0.116543    0.717621     0.007504
PD3536   PD        0.494121    0.116735    0.714698     0.005394
AU3537   AU        0.270795    0.194142    0.713191     0.007504
PD3538   PD        0.309597    0.156769    0.714207     0.005394
AU3539   AU        0.309833    0.194637    0.753926     0.007504
AU3540   AU        0.344763    0.195031    0.715773     0.007504
AU3541   AU        0.384410    0.155824    0.714288     0.007504
AU3542   AU        0.384599    0.193550    0.751508     0.007504
PD3543   PD        0.424258    0.157089    0.750837     0.005394
AU3544   AU        0.422703    0.193935    0.712681     0.007504
PD3545   PD        0.459301    0.157204    0.713812     0.005394
PD3546   PD        0.460946    0.193416    0.748024     0.005394
PD3547   PD        0.497419    0.155698    0.750889     0.005394
AU3548   AU        0.497927    0.192078    0.712383     0.007504
AU3549   AU        0.536692    0.151761    0.716950     0.007504
AU3550   AU        0.537270    0.191114    0.752621     0.007504
AU3551   AU        0.574438    0.191197    0.717404     0.007504
PD3552   PD        0.612761    0.155295    0.717157     0.005394
PD3553   PD        0.610993    0.190168    0.753414     0.005394
AU3554   AU        0.653061    0.191699    0.719441     0.007504
PD3555   PD        0.194807    0.270119    0.714856     0.005394
PD3556   PD        0.230484    0.231443    0.715887     0.005394
AU3557   AU        0.230455    0.267585    0.750186     0.007504
PD3558   PD        0.270437    0.230005    0.747570     0.005394
PD3559   PD        0.269344    0.270424    0.715102     0.005394
PD3560   PD        0.309733    0.233783    0.714318     0.005394
PD3561   PD        0.308630    0.266749    0.750266     0.005394
PD3562   PD        0.347602    0.233275    0.750061     0.005394
PD3563   PD        0.344562    0.270476    0.716554     0.005394
PD3564   PD        0.383333    0.232440    0.717448     0.005394
PD3565   PD        0.383199    0.271477    0.749142     0.005394
PD3566   PD        0.425562    0.230997    0.750005     0.005394
PD3567   PD        0.421538    0.270013    0.720085     0.005394
PD3568   PD        0.459931    0.229011    0.714395     0.005394
PD3569   PD        0.461637    0.269285    0.749952     0.005394
PD3570   PD        0.499393    0.226829    0.747776     0.005394
PD3571   PD        0.500104    0.269477    0.715162     0.005394
PD3572   PD        0.537854    0.231138    0.716276     0.005394
AU3573   AU        0.537507    0.267735    0.752650     0.007504
PD3574   PD        0.575947    0.229734    0.755759     0.005394
AU3575   AU        0.577249    0.268263    0.720170     0.007504
PD3576   PD        0.613595    0.228694    0.719757     0.005394
AU3577   AU        0.612213    0.270525    0.756267     0.007504
AU3578   AU        0.651025    0.231912    0.754721     0.007504
AU3579   AU        0.653878    0.268797    0.717758     0.007504
PD3580   PD        0.689739    0.229470    0.716723     0.005394
AU3581   AU        0.690526    0.268946    0.754527     0.007504
PD3582   PD        0.728486    0.268153    0.718016     0.005394
AU3583   AU        0.157866    0.309410    0.714362     0.007504
PD3584   PD        0.193217    0.306935    0.749735     0.005394
AU3585   AU        0.192026    0.347590    0.715373     0.007504
AU3586   AU        0.231048    0.308259    0.715302     0.007504
PD3587   PD        0.233026    0.346292    0.751933     0.005394
PD3588   PD        0.271815    0.307245    0.749208     0.005394
PD3589   PD        0.268531    0.345873    0.716742     0.005394
PD3590   PD        0.307164    0.308276    0.716175     0.005394
PD3591   PD        0.305985    0.346403    0.751519     0.005394
PD3592   PD        0.345437    0.308545    0.749498     0.005394
PD3593   PD        0.346262    0.347740    0.716064     0.005394
PD3594   PD        0.383530    0.308453    0.716693     0.005394
PD3595   PD        0.383422    0.348466    0.747160     0.005394
PD3596   PD        0.423449    0.308055    0.750778     0.005394
AU3597   AU        0.422943    0.345532    0.715707     0.007504
PD3598   PD        0.460663    0.306774    0.714842     0.005394
AU3599   AU        0.457742    0.347929    0.752581     0.007504
AU3600   AU        0.499415    0.310010    0.751783     0.007504
AU3601   AU        0.497272    0.345705    0.716664     0.007504
PD3602   PD        0.537329    0.305382    0.718030     0.005394
PD3603   PD        0.534237    0.346378    0.752127     0.005394
PD3604   PD        0.573204    0.308285    0.752788     0.005394
AU3605   AU        0.573725    0.345311    0.718734     0.007504
PD3606   PD        0.615967    0.307992    0.720078     0.005394
AU3607   AU        0.612230    0.347421    0.752792     0.007504
PD3608   PD        0.652991    0.312025    0.754542     0.005394
PD3609   PD        0.652308    0.343276    0.718619     0.005394
AU3610   AU        0.691610    0.305734    0.719461     0.007504
AU3611   AU        0.694516    0.346404    0.758357     0.007504
PD3612   PD        0.733739    0.306447    0.752287     0.005394
PD3613   PD        0.728626    0.344514    0.718787     0.005394
PD3614   PD        0.768474    0.307645    0.714671     0.005394
AU3615   AU        0.117983    0.422812    0.714474     0.007504
PD3616   PD        0.156408    0.386081    0.710269     0.005394
PD3617   PD        0.155297    0.420964    0.746895     0.005394
AU3618   AU        0.191966    0.385070    0.750417     0.007504
PD3619   PD        0.192891    0.421522    0.710330     0.005394
AU3620   AU        0.231765    0.383512    0.715768     0.007504
PD3621   PD        0.229998    0.422110    0.752606     0.005394
PD3622   PD        0.268998    0.385528    0.751415     0.005394
AU3623   AU        0.268987    0.424035    0.716337     0.007504
AU3624   AU        0.307659    0.384437    0.713101     0.007504
AU3625   AU        0.307305    0.422159    0.751285     0.007504
AU3626   AU        0.345063    0.385532    0.751012     0.007504
PD3627   PD        0.345779    0.424218    0.717045     0.005394
AU3628   AU        0.385285    0.386162    0.713451     0.007504
AU3629   AU        0.383982    0.422755    0.750794     0.007504
PD3630   PD        0.420538    0.385845    0.751200     0.005394
AU3631   AU        0.424169    0.423088    0.715550     0.007504
AU3632   AU        0.459040    0.385774    0.716185     0.007504
PD3633   PD        0.462464    0.424948    0.753479     0.005394
PD3634   PD        0.498191    0.381697    0.751276     0.005394
PD3635   PD        0.500894    0.422371    0.717034     0.005394
AU3636   AU        0.537412    0.384597    0.715516     0.007504
PD3637   PD        0.536383    0.419807    0.752825     0.005394
PD3638   PD        0.571957    0.384878    0.754416     0.005394
AU3639   AU        0.575900    0.422431    0.720575     0.007504
PD3640   PD        0.615264    0.384377    0.718078     0.005394
PD3641   PD        0.613790    0.422213    0.752380     0.005394
AU3642   AU        0.652005    0.381062    0.753514     0.007504
PD3643   PD        0.652845    0.424802    0.716690     0.005394
AU3644   AU        0.691028    0.382492    0.718899     0.007504
AU3645   AU        0.688824    0.422502    0.754295     0.007504
PD3646   PD        0.728175    0.386679    0.754511     0.005394
PD3647   PD        0.728385    0.424311    0.717810     0.005394
PD3648   PD        0.764064    0.382891    0.717906     0.005394
AU3649   AU        0.769856    0.420603    0.755569     0.007504
AU3650   AU        0.806394    0.421353    0.718115     0.007504
AU3651   AU        0.115327    0.497829    0.713895     0.007504
AU3652   AU        0.157029    0.461513    0.715174     0.007504
AU3653   AU        0.153776    0.497796    0.751875     0.007504
PD3654   PD        0.193971    0.461276    0.750274     0.005394
AU3655   AU        0.195661    0.499843    0.713899     0.007504
AU3656   AU        0.232871    0.460363    0.717123     0.007504
PD3657   PD        0.234588    0.499572    0.749353     0.005394
AU3658   AU        0.271521    0.461011    0.753691     0.007504
PD3659   PD        0.269379    0.502259    0.715378     0.005394
AU3660   AU        0.305718    0.464987    0.713724     0.007504
AU3661   AU        0.309226    0.502788    0.749968     0.007504
PD3662   PD        0.343901    0.462415    0.749387     0.005394
PD3663   PD        0.344781    0.502109    0.715347     0.005394
AU3664   AU        0.383824    0.464540    0.716804     0.007504
AU3665   AU        0.384963    0.501586    0.752434     0.007504
AU3666   AU        0.423477    0.460777    0.750358     0.007504
AU3667   AU        0.422508    0.501590    0.717957     0.007504
AU3668   AU        0.460898    0.461417    0.716800     0.007504
PD3669   PD        0.463281    0.500779    0.752085     0.005394
AU3670   AU        0.499416    0.460785    0.750624     0.007504
AU3671   AU        0.503229    0.502904    0.717909     0.007504
PD3672   PD        0.540630    0.462558    0.718755     0.005394
PD3673   PD        0.539723    0.499751    0.752624     0.005394
PD3674   PD        0.575646    0.462178    0.753163     0.005394
AU3675   AU        0.577812    0.496754    0.716102     0.007504
PD3676   PD        0.615560    0.459990    0.718335     0.005394
AU3677   AU        0.615552    0.497379    0.752887     0.007504
PD3678   PD        0.653096    0.459404    0.754108     0.005394
AU3679   AU        0.650663    0.499045    0.719257     0.007504
PD3680   PD        0.691566    0.460053    0.718205     0.005394
AU3681   AU        0.688929    0.499627    0.755541     0.007504
AU3682   AU        0.728636    0.460298    0.753179     0.007504
PD3683   PD        0.729992    0.499392    0.717701     0.005394
AU3684   AU        0.765408    0.460894    0.719161     0.007504
AU3685   AU        0.766957    0.498609    0.755053     0.007504
AU3686   AU        0.805959    0.497129    0.721641     0.007504
AU3687   AU        0.152654    0.540259    0.717728     0.007504
PD3688   PD        0.197318    0.536902    0.750452     0.005394
AU3689   AU        0.193128    0.577092    0.717609     0.007504
PD3690   PD        0.232441    0.537900    0.714198     0.005394
AU3691   AU        0.230428    0.576980    0.751298     0.007504
PD3692   PD        0.269559    0.541001    0.750421     0.005394
PD3693   PD        0.267386    0.579881    0.715675     0.005394
PD3694   PD        0.305511    0.539429    0.716174     0.005394
PD3695   PD        0.307447    0.576464    0.750779     0.005394
PD3696   PD        0.346613    0.540462    0.751395     0.005394
PD3697   PD        0.346295    0.574971    0.714806     0.005394
PD3698   PD        0.383811    0.536344    0.715215     0.005394
PD3699   PD        0.385382    0.577534    0.752173     0.005394
AU3700   AU        0.424542    0.537787    0.753178     0.007504
AU3701   AU        0.422068    0.578588    0.717218     0.007504
AU3702   AU        0.462849    0.539406    0.719238     0.007504
PD3703   PD        0.462012    0.577916    0.750322     0.005394
AU3704   AU        0.501344    0.537272    0.754403     0.007504
AU3705   AU        0.502654    0.575893    0.718112     0.007504
AU3706   AU        0.541315    0.539887    0.717746     0.007504
AU3707   AU        0.540320    0.575860    0.753760     0.007504
PD3708   PD        0.577404    0.536935    0.750842     0.005394
PD3709   PD        0.577868    0.577094    0.716142     0.005394
PD3710   PD        0.614498    0.538230    0.718848     0.005394
PD3711   PD        0.613653    0.576095    0.752096     0.005394
PD3712   PD        0.651895    0.536540    0.755168     0.005394
PD3713   PD        0.649940    0.577192    0.716603     0.005394
PD3714   PD        0.688842    0.538614    0.718002     0.005394
PD3715   PD        0.688551    0.576903    0.751124     0.005394
AU3716   AU        0.728393    0.537873    0.752935     0.007504
PD3717   PD        0.727951    0.576294    0.717424     0.005394
AU3718   AU        0.768080    0.539047    0.718870     0.007504
AU3719   AU        0.154746    0.616975    0.715856     0.007504
PD3720   PD        0.191900    0.616448    0.750552     0.005394
PD3721   PD        0.194344    0.653003    0.717248     0.005394
PD3722   PD        0.230169    0.616013    0.715254     0.005394
AU3723   AU        0.232069    0.654518    0.751972     0.007504
PD3724   PD        0.270490    0.615716    0.749348     0.005394
PD3725   PD        0.270888    0.656158    0.717692     0.005394
AU3726   AU        0.312470    0.615585    0.715352     0.007504
AU3727   AU        0.308777    0.654424    0.752106     0.007504
AU3728   AU        0.349385    0.616249    0.750837     0.007504
PD3729   PD        0.344707    0.656170    0.718018     0.005394
PD3730   PD        0.384164    0.616371    0.715075     0.005394
PD3731   PD        0.386749    0.656377    0.750453     0.005394
PD3732   PD        0.424566    0.614668    0.753185     0.005394
AU3733   AU        0.423319    0.653404    0.717738     0.007504
AU3734   AU        0.462326    0.614356    0.716846     0.007504
PD3735   PD        0.464609    0.654689    0.749078     0.005394
AU3736   AU        0.502175    0.615665    0.751775     0.007504
PD3737   PD        0.500899    0.654572    0.716192     0.005394
AU3738   AU        0.541310    0.616752    0.715102     0.007504
AU3739   AU        0.538620    0.654433    0.751844     0.007504
AU3740   AU        0.577718    0.614279    0.751720     0.007504
AU3741   AU        0.575722    0.656839    0.717409     0.007504
AU3742   AU        0.613800    0.616392    0.716794     0.007504
AU3743   AU        0.612694    0.655753    0.752836     0.007504
PD3744   PD        0.650814    0.615566    0.752686     0.005394
PD3745   PD        0.652420    0.654560    0.718258     0.005394
AU3746   AU        0.689418    0.615736    0.717871     0.007504
AU3747   AU        0.690225    0.654807    0.755170     0.007504
PD3748   PD        0.729365    0.611394    0.752848     0.005394
PD3749   PD        0.731139    0.651438    0.718494     0.005394
PD3750   PD        0.764885    0.611773    0.718393     0.005394
PD3751   PD        0.232523    0.694512    0.716914     0.005394
AU3752   AU        0.270795    0.692137    0.751791     0.007504
AU3753   AU        0.271580    0.731928    0.715077     0.007504
AU3754   AU        0.308702    0.694939    0.717112     0.007504
AU3755   AU        0.309386    0.732696    0.750354     0.007504
AU3756   AU        0.345975    0.694421    0.753743     0.007504
AU3757   AU        0.348841    0.733158    0.715732     0.007504
PD3758   PD        0.386211    0.695066    0.715683     0.005394
PD3759   PD        0.386293    0.734317    0.751784     0.005394
PD3760   PD        0.423697    0.693906    0.749928     0.005394
PD3761   PD        0.422871    0.732280    0.715784     0.005394
PD3762   PD        0.460158    0.694703    0.714288     0.005394
PD3763   PD        0.462664    0.730058    0.750314     0.005394
PD3764   PD        0.499795    0.692992    0.750913     0.005394
PD3765   PD        0.499264    0.730862    0.716065     0.005394
PD3766   PD        0.535169    0.693112    0.715976     0.005394
PD3767   PD        0.537087    0.729512    0.754650     0.005394
AU3768   AU        0.577793    0.694243    0.756947     0.007504
AU3769   AU        0.575877    0.731408    0.718776     0.007504
PD3770   PD        0.616028    0.690715    0.715822     0.005394
AU3771   AU        0.616212    0.736817    0.751663     0.007504
PD3772   PD        0.652106    0.692352    0.752714     0.005394
AU3773   AU        0.653891    0.731084    0.717815     0.007504
AU3774   AU        0.692170    0.689799    0.718187     0.007504
AU3775   AU        0.310452    0.773259    0.714082     0.007504
PD3776   PD        0.385952    0.770093    0.715502     0.005394
PD3777   PD        0.425410    0.769928    0.751076     0.005394
PD3778   PD        0.423266    0.806426    0.714191     0.005394
AU3779   AU        0.461342    0.770730    0.715923     0.007504
AU3780   AU        0.499058    0.767634    0.754640     0.007504
AU3781   AU        0.501264    0.812884    0.719810     0.007504
AU3782   AU        0.538968    0.773004    0.718970     0.007504
PD3783   PD        0.614099    0.767534    0.713882     0.005394
PD3784   PD        0.426304    0.194678    0.785271     0.005394
PD3785   PD        0.495822    0.193118    0.785707     0.005394
AU3786   AU        0.275419    0.267660    0.787088     0.007504
PD3787   PD        0.348249    0.271386    0.783629     0.005394
AU3788   AU        0.384789    0.228450    0.786793     0.007504
PD3789   PD        0.382152    0.272152    0.819575     0.005394
AU3790   AU        0.421387    0.267212    0.784158     0.007504
PD3791   PD        0.461820    0.230762    0.785940     0.005394
PD3792   PD        0.458865    0.271015    0.818617     0.005394
PD3793   PD        0.497729    0.270755    0.783748     0.005394
PD3794   PD        0.534259    0.232534    0.785418     0.005394
AU3795   AU        0.533429    0.265358    0.822347     0.007504
AU3796   AU        0.573182    0.270279    0.787700     0.007504
AU3797   AU        0.651441    0.273971    0.790876     0.007504
AU3798   AU        0.269830    0.345366    0.788760     0.007504
PD3799   PD        0.306949    0.307597    0.784949     0.005394
AU3800   AU        0.308344    0.345797    0.823123     0.007504
PD3801   PD        0.346245    0.307932    0.816798     0.005394
PD3802   PD        0.344959    0.345478    0.782966     0.005394
PD3803   PD        0.383076    0.307484    0.783132     0.005394
AU3804   AU        0.383400    0.343099    0.820005     0.007504
PD3805   PD        0.422824    0.307128    0.817794     0.005394
AU3806   AU        0.418986    0.346533    0.784572     0.007504
PD3807   PD        0.461745    0.308206    0.786362     0.005394
PD3808   PD        0.458258    0.345886    0.819576     0.005394
AU3809   AU        0.499660    0.306103    0.823122     0.007504
PD3810   PD        0.497468    0.347779    0.787565     0.005394
PD3811   PD        0.536217    0.306872    0.787600     0.005394
PD3812   PD        0.534398    0.345648    0.820933     0.005394
AU3813   AU        0.569813    0.308968    0.823901     0.007504
AU3814   AU        0.569410    0.345365    0.786861     0.007504
PD3815   PD        0.609028    0.311810    0.788623     0.005394
AU3816   AU        0.610387    0.346629    0.823489     0.007504
PD3817   PD        0.651700    0.345856    0.789770     0.005394
PD3818   PD        0.191260    0.422626    0.784214     0.005394
AU3819   AU        0.231549    0.385771    0.787336     0.007504
AU3820   AU        0.269124    0.386942    0.823977     0.007504
PD3821   PD        0.271106    0.422677    0.786744     0.005394
AU3822   AU        0.308069    0.384090    0.787228     0.007504
PD3823   PD        0.306831    0.425631    0.822418     0.005394
PD3824   PD        0.345672    0.387609    0.821178     0.005394
AU3825   AU        0.346228    0.423428    0.785964     0.007504
PD3826   PD        0.381508    0.384921    0.786903     0.005394
PD3827   PD        0.385532    0.425136    0.820345     0.005394
PD3828   PD        0.420464    0.384202    0.821158     0.005394
PD3829   PD        0.422069    0.423201    0.787007     0.005394
PD3830   PD        0.459013    0.385602    0.787417     0.005394
AU3831   AU        0.456710    0.424150    0.823026     0.007504
AU3832   AU        0.496031    0.383550    0.824282     0.007504
PD3833   PD        0.496946    0.422225    0.788065     0.005394
PD3834   PD        0.534728    0.385147    0.787672     0.005394
PD3835   PD        0.534006    0.421991    0.824341     0.005394
PD3836   PD        0.574128    0.383580    0.821914     0.005394
AU3837   AU        0.575705    0.423239    0.787973     0.007504
AU3838   AU        0.612739    0.383860    0.788507     0.007504
PD3839   PD        0.613667    0.424544    0.821970     0.005394
AU3840   AU        0.651608    0.384364    0.825787     0.007504
PD3841   PD        0.651676    0.422702    0.789623     0.005394
PD3842   PD        0.688617    0.386675    0.789145     0.005394
PD3843   PD        0.728025    0.421672    0.789534     0.005394
PD3844   PD        0.193833    0.499352    0.784052     0.005394
AU3845   AU        0.231169    0.461155    0.783673     0.007504
AU3846   AU        0.269980    0.460873    0.820457     0.007504
PD3847   PD        0.271600    0.500227    0.786337     0.005394
PD3848   PD        0.309213    0.462830    0.784904     0.005394
AU3849   AU        0.308224    0.499048    0.823129     0.007504
PD3850   PD        0.343455    0.461132    0.819315     0.005394
PD3851   PD        0.347176    0.503095    0.785706     0.005394
PD3852   PD        0.383870    0.463032    0.784496     0.005394
PD3853   PD        0.383927    0.499169    0.818834     0.005394
PD3854   PD        0.422130    0.462851    0.819978     0.005394
PD3855   PD        0.423621    0.501325    0.787278     0.005394
PD3856   PD        0.459518    0.461131    0.788310     0.005394
PD3857   PD        0.460190    0.499847    0.821656     0.005394
PD3858   PD        0.497145    0.460911    0.821415     0.005394
AU3859   AU        0.500011    0.499690    0.787655     0.007504
AU3860   AU        0.537329    0.459210    0.789078     0.007504
AU3861   AU        0.538098    0.501346    0.825201     0.007504
PD3862   PD        0.575954    0.458947    0.824398     0.005394
AU3863   AU        0.577931    0.499507    0.788668     0.007504
AU3864   AU        0.612852    0.461154    0.786375     0.007504
PD3865   PD        0.613693    0.498652    0.825331     0.005394
PD3866   PD        0.651891    0.460660    0.823372     0.005394
PD3867   PD        0.651136    0.498577    0.788527     0.005394
PD3868   PD        0.688869    0.460508    0.789733     0.005394
AU3869   AU        0.727140    0.500500    0.791368     0.007504
PD3870   PD        0.233224    0.534444    0.785740     0.005394
PD3871   PD        0.269216    0.536419    0.821481     0.005394
AU3872   AU        0.268403    0.577616    0.787155     0.007504
PD3873   PD        0.307057    0.538744    0.785968     0.005394
AU3874   AU        0.308697    0.574422    0.821947     0.007504
AU3875   AU        0.346758    0.536224    0.823496     0.007504
AU3876   AU        0.347429    0.578203    0.785512     0.007504
PD3877   PD        0.382133    0.539429    0.787824     0.005394
PD3878   PD        0.384252    0.576127    0.820138     0.005394
PD3879   PD        0.423039    0.538474    0.819122     0.005394
PD3880   PD        0.425274    0.577092    0.787428     0.005394
PD3881   PD        0.463037    0.536321    0.786831     0.005394
PD3882   PD        0.460883    0.576051    0.822837     0.005394
AU3883   AU        0.499678    0.537809    0.822619     0.007504
PD3884   PD        0.499127    0.578036    0.787258     0.005394
AU3885   AU        0.538678    0.538963    0.789105     0.007504
AU3886   AU        0.540821    0.576658    0.825054     0.007504
PD3887   PD        0.580277    0.536392    0.822040     0.005394
PD3888   PD        0.576666    0.575576    0.789221     0.005394
PD3889   PD        0.613760    0.538118    0.788416     0.005394
AU3890   AU        0.615466    0.578288    0.823141     0.007504
PD3891   PD        0.650940    0.536933    0.822341     0.005394
AU3892   AU        0.649301    0.576245    0.787503     0.007504
PD3893   PD        0.691751    0.543409    0.788788     0.005394
AU3894   AU        0.269594    0.650720    0.788288     0.007504
PD3895   PD        0.308875    0.612648    0.785122     0.005394
PD3896   PD        0.347940    0.612398    0.820700     0.005394
AU3897   AU        0.345185    0.656507    0.791243     0.007504
AU3898   AU        0.384722    0.615861    0.787074     0.007504
AU3899   AU        0.384612    0.656247    0.824490     0.007504
PD3900   PD        0.425233    0.616260    0.823130     0.005394
AU3901   AU        0.425267    0.654021    0.785138     0.007504
AU3902   AU        0.463166    0.614147    0.788661     0.007504
PD3903   PD        0.462601    0.654118    0.822436     0.005394
PD3904   PD        0.502216    0.614689    0.824977     0.005394
AU3905   AU        0.500148    0.653583    0.789127     0.007504
PD3906   PD        0.539373    0.613026    0.788205     0.005394
PD3907   PD        0.539850    0.651778    0.822817     0.005394
PD3908   PD        0.575886    0.616953    0.823900     0.005394
AU3909   AU        0.576580    0.652447    0.789461     0.007504
PD3910   PD        0.614644    0.615742    0.787847     0.005394
PD3911   PD        0.651213    0.652163    0.787636     0.005394
AU3912   AU        0.386636    0.695580    0.787833     0.007504
PD3913   PD        0.427122    0.728911    0.787536     0.005394
PD3914   PD        0.463442    0.690406    0.784288     0.005394
PD3915   PD        0.495915    0.729853    0.788909     0.005394
PD3916   PD        0.535937    0.691047    0.788180     0.005394
AU3917   AU        0.419689    0.422600    0.857606     0.007504
PD3918   PD        0.456359    0.382016    0.858698     0.005394
AU3919   AU        0.496192    0.422462    0.858866     0.007504
AU3920   AU        0.381933    0.461623    0.854816     0.007504
AU3921   AU        0.420411    0.500341    0.857048     0.007504
PD3922   PD        0.459554    0.461966    0.856433     0.005394
PD3923   PD        0.495659    0.498347    0.857036     0.005394
PD3924   PD        0.532277    0.461860    0.856379     0.005394
PD3925   PD        0.459869    0.537576    0.854558     0.005394
