data_00001
_audit_creation_method   'DISCUS'

_data_chemical_name_common 'Au.cell: Pearson 85'

_cell_length_a             61.1835
_cell_length_b             61.1835
_cell_length_c             61.1835
_cell_angle_alpha     90.0000
_cell_angle_beta      90.0000
_cell_angle_gamma     90.0000

_symmetry_space_group_name_H-M   'P1              '

loop_
_atom_site_label
_atom_site_symbol
_atom_site_fract_x
_atom_site_fract_y
_atom_site_fract_z
_atom_site_u_iso_or_equiv
PD1   PD        0.402653    0.266501    0.055309     0.005394
AU2   AU        0.466709    0.270501    0.055395     0.007504
AU3   AU        0.526672    0.266173    0.053248     0.007504
PD4   PD        0.335798    0.335579    0.057769     0.005394
AU5   AU        0.370411    0.303348    0.061102     0.007504
AU6   AU        0.400909    0.337509    0.059472     0.007504
AU7   AU        0.432094    0.302713    0.058268     0.007504
PD8   PD        0.467450    0.336005    0.059634     0.005394
AU9   AU        0.499927    0.301105    0.059810     0.007504
PD10   PD        0.578391    0.378075    0.000667     0.005394
PD11   PD        0.562355    0.299301    0.055957     0.005394
PD12   PD        0.599272    0.305790    0.034418     0.005394
PD13   PD        0.303814    0.369572    0.056523     0.005394
AU14   AU        0.333368    0.403934    0.056213     0.007504
AU15   AU        0.366663    0.370520    0.059082     0.007504
PD16   PD        0.399833    0.400758    0.055512     0.005394
AU17   AU        0.433508    0.368179    0.058935     0.007504
PD18   PD        0.432140    0.399618    0.021904     0.005394
PD19   PD        0.468429    0.367776    0.024540     0.005394
AU20   AU        0.468262    0.399429    0.055226     0.007504
PD21   PD        0.498878    0.364862    0.058018     0.005394
PD22   PD        0.505117    0.401043    0.026249     0.005394
PD23   PD        0.534703    0.403507    0.055546     0.005394
AU24   AU        0.568222    0.370681    0.056567     0.007504
AU25   AU        0.600574    0.402538    0.058740     0.007504
AU26   AU        0.633171    0.369451    0.055881     0.007504
AU27   AU        0.300928    0.435515    0.057456     0.007504
AU28   AU        0.335245    0.466872    0.056647     0.007504
AU29   AU        0.367500    0.433231    0.058350     0.007504
AU30   AU        0.365799    0.400314    0.023710     0.007504
AU31   AU        0.402940    0.465148    0.056874     0.007504
AU32   AU        0.435605    0.431796    0.055977     0.007504
AU33   AU        0.369283    0.467626    0.026386     0.007504
AU34   AU        0.468193    0.431053    0.024115     0.007504
AU35   AU        0.465067    0.466173    0.059120     0.007504
AU36   AU        0.501600    0.433875    0.057674     0.007504
PD37   PD        0.498408    0.463270    0.024601     0.005394
PD38   PD        0.533973    0.435537    0.026778     0.005394
AU39   AU        0.530829    0.468186    0.056773     0.007504
PD40   PD        0.566220    0.436705    0.058599     0.005394
AU41   AU        0.599301    0.467516    0.056112     0.007504
PD42   PD        0.634594    0.398602    0.022006     0.005394
PD43   PD        0.300826    0.502022    0.057157     0.005394
PD44   PD        0.334153    0.531504    0.053275     0.005394
PD45   PD        0.369981    0.501402    0.057731     0.005394
AU46   AU        0.400958    0.534083    0.055399     0.007504
AU47   AU        0.432946    0.500172    0.056555     0.007504
PD48   PD        0.462805    0.495323    0.024059     0.005394
PD49   PD        0.463320    0.534878    0.056759     0.005394
PD50   PD        0.498658    0.501851    0.054893     0.005394
PD51   PD        0.532424    0.533963    0.057757     0.005394
PD52   PD        0.564068    0.500198    0.057342     0.005394
PD53   PD        0.598843    0.531909    0.056638     0.005394
PD54   PD        0.632447    0.501310    0.055950     0.005394
PD55   PD        0.366240    0.565723    0.056651     0.005394
PD56   PD        0.399292    0.598829    0.057347     0.005394
AU57   AU        0.432697    0.568426    0.058124     0.007504
PD58   PD        0.464043    0.630288    0.024568     0.005394
AU59   AU        0.500712    0.567442    0.056319     0.007504
AU60   AU        0.535462    0.603274    0.057325     0.007504
PD61   PD        0.563938    0.566914    0.055104     0.005394
PD62   PD        0.329995    0.198023    0.127306     0.005394
PD63   PD        0.397772    0.198743    0.121099     0.005394
PD64   PD        0.435355    0.169602    0.124506     0.005394
PD65   PD        0.464887    0.202503    0.059217     0.005394
AU66   AU        0.467476    0.201794    0.124917     0.007504
PD67   PD        0.499352    0.167914    0.124930     0.005394
PD68   PD        0.532070    0.166655    0.088815     0.005394
PD69   PD        0.532601    0.201944    0.125707     0.005394
PD70   PD        0.602800    0.204719    0.123501     0.005394
PD71   PD        0.269149    0.269070    0.123427     0.005394
PD72   PD        0.298855    0.233612    0.125946     0.005394
PD73   PD        0.247731    0.280266    0.044327     0.005394
PD74   PD        0.334222    0.271517    0.124970     0.005394
AU75   AU        0.367426    0.234847    0.125153     0.007504
PD76   PD        0.331749    0.227307    0.093159     0.005394
PD77   PD        0.403606    0.230980    0.090392     0.005394
PD78   PD        0.400961    0.268480    0.122730     0.005394
PD79   PD        0.434479    0.235108    0.121356     0.005394
PD80   PD        0.432248    0.270855    0.091639     0.005394
PD81   PD        0.468591    0.238489    0.090309     0.005394
PD82   PD        0.465223    0.269856    0.124814     0.005394
AU83   AU        0.498287    0.235746    0.123985     0.007504
PD84   PD        0.496944    0.264997    0.090305     0.005394
AU85   AU        0.531324    0.236972    0.091872     0.007504
AU86   AU        0.532417    0.267996    0.123660     0.007504
PD87   PD        0.565757    0.235357    0.124485     0.005394
AU88   AU        0.567760    0.266017    0.090349     0.007504
PD89   PD        0.600597    0.270038    0.125620     0.005394
PD90   PD        0.635843    0.235977    0.123991     0.005394
PD91   PD        0.630276    0.270207    0.088295     0.005394
PD92   PD        0.667238    0.268154    0.123585     0.005394
PD93   PD        0.238270    0.303357    0.127662     0.005394
AU94   AU        0.266697    0.331944    0.123248     0.007504
PD95   PD        0.299896    0.303412    0.121730     0.005394
AU96   AU        0.300673    0.336303    0.091488     0.007504
PD97   PD        0.335211    0.303656    0.088721     0.005394
PD98   PD        0.332129    0.336700    0.121172     0.005394
PD99   PD        0.365803    0.303150    0.126359     0.005394
AU100   AU        0.367550    0.336701    0.090584     0.007504
PD101   PD        0.397956    0.302357    0.090559     0.005394
PD102   PD        0.402004    0.335076    0.123816     0.005394
PD103   PD        0.435544    0.303136    0.126281     0.005394
AU104   AU        0.435069    0.337565    0.091407     0.007504
AU105   AU        0.467719    0.301393    0.091943     0.007504
AU106   AU        0.468929    0.334810    0.124040     0.007504
PD107   PD        0.502526    0.301503    0.122230     0.005394
AU108   AU        0.503125    0.335347    0.091081     0.007504
AU109   AU        0.531724    0.298812    0.090030     0.007504
PD110   PD        0.537004    0.332830    0.122850     0.005394
AU111   AU        0.566398    0.301149    0.122235     0.007504
PD112   PD        0.564296    0.335504    0.089709     0.005394
PD113   PD        0.598046    0.302336    0.089415     0.005394
AU114   AU        0.600085    0.334690    0.123719     0.007504
PD115   PD        0.633355    0.302185    0.121714     0.005394
PD116   PD        0.633150    0.337696    0.091320     0.005394
PD117   PD        0.665459    0.333115    0.123638     0.005394
AU118   AU        0.699866    0.300447    0.121902     0.007504
PD119   PD        0.204962    0.403086    0.124998     0.005394
PD120   PD        0.233010    0.365222    0.123451     0.005394
PD121   PD        0.233127    0.400710    0.090197     0.005394
AU122   AU        0.269527    0.368342    0.092095     0.007504
AU123   AU        0.267788    0.402421    0.124772     0.007504
AU124   AU        0.300502    0.369333    0.125102     0.007504
AU125   AU        0.301417    0.402278    0.090941     0.007504
AU126   AU        0.333995    0.367522    0.092790     0.007504
PD127   PD        0.332073    0.403271    0.123870     0.005394
PD128   PD        0.365768    0.369992    0.123663     0.005394
PD129   PD        0.367559    0.402670    0.090656     0.005394
AU130   AU        0.400003    0.369215    0.091624     0.007504
PD131   PD        0.400060    0.401275    0.124317     0.005394
PD132   PD        0.430804    0.368256    0.123692     0.005394
AU133   AU        0.434052    0.401787    0.089679     0.007504
PD134   PD        0.466512    0.367898    0.089654     0.005394
PD135   PD        0.468772    0.400551    0.124080     0.005394
AU136   AU        0.500611    0.369578    0.123061     0.007504
AU137   AU        0.500163    0.400430    0.088098     0.007504
AU138   AU        0.533688    0.370381    0.091046     0.007504
AU139   AU        0.534462    0.404305    0.122369     0.007504
PD140   PD        0.566887    0.369705    0.124332     0.005394
AU141   AU        0.568142    0.403024    0.090429     0.007504
PD142   PD        0.600337    0.368809    0.090278     0.005394
AU143   AU        0.598800    0.400018    0.123710     0.007504
AU144   AU        0.633503    0.366274    0.125865     0.007504
PD145   PD        0.632612    0.399535    0.090699     0.005394
PD146   PD        0.661536    0.330962    0.054348     0.005394
AU147   AU        0.666729    0.401988    0.121932     0.007504
AU148   AU        0.696756    0.368204    0.120945     0.007504
PD149   PD        0.771912    0.433286    0.057655     0.005394
PD150   PD        0.735202    0.400929    0.121181     0.005394
PD151   PD        0.199166    0.465868    0.124806     0.005394
PD152   PD        0.234380    0.435502    0.121760     0.005394
PD153   PD        0.234357    0.468266    0.086460     0.005394
PD154   PD        0.267194    0.434433    0.089916     0.005394
AU155   AU        0.266579    0.468700    0.122932     0.007504
AU156   AU        0.298779    0.434052    0.121644     0.007504
PD157   PD        0.299466    0.465964    0.090235     0.005394
AU158   AU        0.334538    0.433940    0.091081     0.007504
PD159   PD        0.331661    0.467904    0.123498     0.005394
PD160   PD        0.366833    0.437390    0.121608     0.005394
AU161   AU        0.367494    0.467012    0.088888     0.007504
PD162   PD        0.401341    0.433841    0.088973     0.005394
PD163   PD        0.399227    0.470223    0.121517     0.005394
PD164   PD        0.435219    0.433187    0.122409     0.005394
PD165   PD        0.432121    0.467632    0.090191     0.005394
PD166   PD        0.468227    0.433458    0.092650     0.005394
AU167   AU        0.466855    0.469638    0.122151     0.007504
AU168   AU        0.499018    0.434273    0.124739     0.007504
AU169   AU        0.499878    0.468519    0.088950     0.007504
AU170   AU        0.534750    0.434239    0.089039     0.007504
AU171   AU        0.532210    0.467129    0.123844     0.007504
AU172   AU        0.565454    0.435132    0.123923     0.007504
AU173   AU        0.565851    0.468790    0.090092     0.007504
PD174   PD        0.598509    0.436137    0.092900     0.005394
PD175   PD        0.599072    0.466084    0.121279     0.005394
AU176   AU        0.632621    0.433578    0.121048     0.007504
PD177   PD        0.633381    0.469109    0.090120     0.005394
PD178   PD        0.665075    0.432126    0.086941     0.005394
PD179   PD        0.665476    0.466535    0.123060     0.005394
PD180   PD        0.696382    0.435595    0.121331     0.005394
PD181   PD        0.697881    0.467040    0.089216     0.005394
AU182   AU        0.732689    0.467744    0.123715     0.007504
PD183   PD        0.233544    0.500039    0.123505     0.005394
PD184   PD        0.267057    0.470471    0.054827     0.005394
PD185   PD        0.265532    0.534894    0.123531     0.005394
PD186   PD        0.297739    0.501970    0.122961     0.005394
AU187   AU        0.300230    0.533748    0.091034     0.007504
AU188   AU        0.331779    0.498772    0.089708     0.007504
PD189   PD        0.331705    0.531618    0.123260     0.005394
AU190   AU        0.366526    0.500535    0.121773     0.007504
PD191   PD        0.368673    0.533985    0.090229     0.005394
AU192   AU        0.400733    0.500226    0.089468     0.007504
PD193   PD        0.400388    0.531851    0.124675     0.005394
PD194   PD        0.436623    0.502774    0.125130     0.005394
AU195   AU        0.432513    0.534398    0.090128     0.007504
PD196   PD        0.467275    0.502886    0.088870     0.005394
AU197   AU        0.469735    0.535596    0.121799     0.007504
PD198   PD        0.499567    0.499244    0.123364     0.005394
PD199   PD        0.500177    0.534062    0.087930     0.005394
PD200   PD        0.531886    0.501332    0.090364     0.005394
AU201   AU        0.533124    0.534821    0.122385     0.007504
AU202   AU        0.565590    0.501459    0.121653     0.007504
AU203   AU        0.567691    0.532604    0.090107     0.007504
AU204   AU        0.599484    0.501172    0.090585     0.007504
AU205   AU        0.600466    0.535222    0.121763     0.007504
PD206   PD        0.631623    0.503251    0.122929     0.005394
PD207   PD        0.632048    0.533086    0.089441     0.005394
AU208   AU        0.666030    0.502513    0.091539     0.007504
PD209   PD        0.666681    0.567463    0.092280     0.005394
AU210   AU        0.699944    0.498071    0.124240     0.007504
PD211   PD        0.235871    0.561436    0.124735     0.005394
PD212   PD        0.266337    0.599341    0.122048     0.005394
AU213   AU        0.299214    0.564320    0.122580     0.007504
PD214   PD        0.300518    0.599354    0.091824     0.005394
AU215   AU        0.333730    0.565444    0.089777     0.007504
AU216   AU        0.332924    0.598863    0.125713     0.007504
PD217   PD        0.365095    0.565961    0.124410     0.005394
PD218   PD        0.364071    0.598927    0.092103     0.005394
AU219   AU        0.399324    0.567528    0.091364     0.007504
AU220   AU        0.398807    0.600301    0.122739     0.007504
AU221   AU        0.433700    0.569357    0.122751     0.007504
PD222   PD        0.435754    0.600466    0.088686     0.005394
PD223   PD        0.468373    0.565656    0.091843     0.005394
AU224   AU        0.465791    0.602511    0.121912     0.007504
PD225   PD        0.500395    0.567625    0.122744     0.005394
AU226   AU        0.498700    0.601167    0.088979     0.007504
AU227   AU        0.534962    0.567647    0.089062     0.007504
AU228   AU        0.531525    0.601767    0.124669     0.007504
AU229   AU        0.564272    0.567407    0.122916     0.007504
PD230   PD        0.564572    0.599651    0.091595     0.005394
AU231   AU        0.597257    0.567753    0.086575     0.007504
AU232   AU        0.598544    0.600725    0.123337     0.007504
AU233   AU        0.631633    0.566766    0.122747     0.007504
PD234   PD        0.597353    0.630275    0.088964     0.005394
AU235   AU        0.665227    0.598392    0.122482     0.007504
PD236   PD        0.702996    0.567380    0.122612     0.005394
AU237   AU        0.300445    0.633289    0.123388     0.007504
PD238   PD        0.334378    0.668831    0.121961     0.005394
PD239   PD        0.365010    0.634043    0.122048     0.005394
PD240   PD        0.401083    0.635587    0.090528     0.005394
PD241   PD        0.400921    0.666061    0.123956     0.005394
PD242   PD        0.433013    0.635785    0.122353     0.005394
PD243   PD        0.434828    0.664592    0.089806     0.005394
PD244   PD        0.466410    0.632173    0.087194     0.005394
AU245   AU        0.466617    0.664029    0.122467     0.007504
PD246   PD        0.498487    0.632821    0.119782     0.005394
PD247   PD        0.500270    0.665971    0.085423     0.005394
PD248   PD        0.567516    0.666597    0.023002     0.005394
PD249   PD        0.532999    0.667658    0.122634     0.005394
AU250   AU        0.566168    0.634953    0.123625     0.007504
PD251   PD        0.600313    0.667498    0.121146     0.005394
AU252   AU        0.632484    0.632975    0.121435     0.007504
AU253   AU        0.433963    0.699040    0.122220     0.007504
PD254   PD        0.496445    0.702289    0.121676     0.005394
PD255   PD        0.334364    0.134279    0.191039     0.005394
AU256   AU        0.401290    0.136476    0.190974     0.007504
PD257   PD        0.421580    0.101536    0.189051     0.005394
PD258   PD        0.434501    0.136758    0.158657     0.005394
PD259   PD        0.469199    0.134762    0.189249     0.005394
PD260   PD        0.468988    0.105894    0.150932     0.005394
PD261   PD        0.501624    0.139885    0.155634     0.005394
PD262   PD        0.534754    0.140164    0.189161     0.005394
PD263   PD        0.601746    0.135280    0.186051     0.005394
AU264   AU        0.268194    0.202480    0.192781     0.007504
AU265   AU        0.299153    0.170687    0.191270     0.007504
PD266   PD        0.298279    0.202327    0.158295     0.005394
PD267   PD        0.289845    0.162365    0.128309     0.005394
AU268   AU        0.330702    0.204633    0.191063     0.007504
PD269   PD        0.363108    0.165517    0.190286     0.005394
AU270   AU        0.365988    0.198996    0.155985     0.007504
PD271   PD        0.402611    0.170254    0.158048     0.005394
AU272   AU        0.401778    0.202642    0.190826     0.007504
PD273   PD        0.434310    0.168971    0.189540     0.005394
PD274   PD        0.433397    0.206177    0.157784     0.005394
AU275   AU        0.467012    0.170715    0.157262     0.007504
AU276   AU        0.467568    0.202004    0.190389     0.007504
AU277   AU        0.502153    0.171031    0.189092     0.007504
PD278   PD        0.499970    0.202598    0.158002     0.005394
PD279   PD        0.535161    0.169281    0.155007     0.005394
PD280   PD        0.534994    0.205300    0.190069     0.005394
PD281   PD        0.568777    0.170936    0.190628     0.005394
PD282   PD        0.566648    0.202089    0.154360     0.005394
AU283   AU        0.600088    0.170233    0.156192     0.007504
PD284   PD        0.600981    0.201327    0.189786     0.005394
PD285   PD        0.632064    0.169450    0.191129     0.005394
AU286   AU        0.631673    0.204064    0.155877     0.007504
AU287   AU        0.667884    0.200972    0.188799     0.007504
PD288   PD        0.199349    0.269193    0.191585     0.005394
AU289   AU        0.232951    0.236116    0.188369     0.007504
AU290   AU        0.198596    0.236329    0.158322     0.007504
PD291   PD        0.265663    0.236093    0.156507     0.005394
PD292   PD        0.266227    0.268089    0.193168     0.005394
AU293   AU        0.299877    0.236465    0.188910     0.007504
PD294   PD        0.300110    0.270490    0.159016     0.005394
AU295   AU        0.333307    0.236747    0.156466     0.007504
AU296   AU        0.333622    0.267739    0.190188     0.007504
PD297   PD        0.367096    0.233579    0.188924     0.005394
PD298   PD        0.367342    0.270103    0.156767     0.005394
AU299   AU        0.400175    0.232412    0.155668     0.007504
PD300   PD        0.400645    0.269910    0.186765     0.005394
AU301   AU        0.434651    0.236111    0.191046     0.007504
PD302   PD        0.433945    0.267920    0.157322     0.005394
PD303   PD        0.466266    0.237157    0.155256     0.005394
PD304   PD        0.466902    0.268053    0.187970     0.005394
AU305   AU        0.500995    0.234886    0.187905     0.007504
AU306   AU        0.500285    0.269400    0.156524     0.007504
AU307   AU        0.531706    0.235853    0.156488     0.007504
AU308   AU        0.533716    0.268338    0.189392     0.007504
PD309   PD        0.567005    0.236050    0.187743     0.005394
AU310   AU        0.565448    0.268410    0.155658     0.007504
AU311   AU        0.599819    0.236543    0.155885     0.007504
AU312   AU        0.600835    0.269285    0.189925     0.007504
AU313   AU        0.633913    0.235282    0.188398     0.007504
AU314   AU        0.633272    0.269909    0.157538     0.007504
AU315   AU        0.666618    0.237475    0.156085     0.007504
AU316   AU        0.665702    0.268874    0.189624     0.007504
AU317   AU        0.697886    0.237024    0.191223     0.007504
AU318   AU        0.699707    0.269721    0.157553     0.007504
AU319   AU        0.733885    0.267564    0.190535     0.007504
PD320   PD        0.170187    0.305654    0.188179     0.005394
PD321   PD        0.174343    0.315049    0.110117     0.005394
PD322   PD        0.205616    0.302168    0.159277     0.005394
PD323   PD        0.234910    0.301697    0.194595     0.005394
AU324   AU        0.237312    0.337011    0.158829     0.007504
PD325   PD        0.267977    0.302947    0.158854     0.005394
AU326   AU        0.269072    0.336229    0.188740     0.007504
AU327   AU        0.301669    0.303990    0.190395     0.007504
AU328   AU        0.302716    0.335616    0.156570     0.007504
PD329   PD        0.335861    0.304085    0.159993     0.005394
PD330   PD        0.336251    0.337541    0.190081     0.005394
AU331   AU        0.365933    0.303473    0.190174     0.007504
PD332   PD        0.369465    0.336309    0.155832     0.005394
PD333   PD        0.401833    0.302463    0.158705     0.005394
PD334   PD        0.400598    0.337712    0.188492     0.005394
AU335   AU        0.432551    0.302390    0.188740     0.007504
AU336   AU        0.434654    0.337166    0.157487     0.007504
AU337   AU        0.467424    0.303213    0.157878     0.007504
PD338   PD        0.467192    0.336913    0.190029     0.005394
PD339   PD        0.501632    0.301492    0.188005     0.005394
AU340   AU        0.502493    0.334508    0.156254     0.007504
AU341   AU        0.534726    0.301695    0.155794     0.007504
AU342   AU        0.533567    0.335116    0.188369     0.007504
AU343   AU        0.566482    0.300613    0.187814     0.007504
PD344   PD        0.568088    0.334214    0.155572     0.005394
AU345   AU        0.599887    0.302596    0.157100     0.007504
PD346   PD        0.599817    0.336594    0.187928     0.005394
AU347   AU        0.633409    0.302292    0.188871     0.007504
PD348   PD        0.633720    0.332758    0.158133     0.005394
PD349   PD        0.666448    0.298499    0.156305     0.005394
PD350   PD        0.666529    0.333396    0.188551     0.005394
PD351   PD        0.699320    0.302874    0.189868     0.005394
AU352   AU        0.699037    0.333826    0.156213     0.007504
PD353   PD        0.732024    0.302589    0.155496     0.005394
AU354   AU        0.731745    0.335753    0.189662     0.007504
PD355   PD        0.767400    0.303195    0.187741     0.005394
PD356   PD        0.135994    0.400864    0.193432     0.005394
AU357   AU        0.171345    0.368015    0.190584     0.007504
PD358   PD        0.169527    0.402317    0.160735     0.005394
PD359   PD        0.201100    0.371476    0.158727     0.005394
AU360   AU        0.202585    0.402641    0.191307     0.007504
AU361   AU        0.235462    0.369211    0.191750     0.007504
AU362   AU        0.233701    0.401297    0.156020     0.007504
AU363   AU        0.267734    0.369314    0.155858     0.007504
AU364   AU        0.268476    0.400475    0.190299     0.007504
AU365   AU        0.301531    0.369675    0.191304     0.007504
PD366   PD        0.298874    0.402088    0.157161     0.005394
PD367   PD        0.336349    0.370853    0.157540     0.005394
PD368   PD        0.333311    0.405136    0.190955     0.005394
PD369   PD        0.365765    0.369353    0.190346     0.005394
PD370   PD        0.365691    0.403143    0.154822     0.005394
AU371   AU        0.401770    0.370477    0.156473     0.007504
AU372   AU        0.400409    0.401982    0.189464     0.007504
AU373   AU        0.434302    0.369675    0.188853     0.007504
PD374   PD        0.436205    0.400486    0.155275     0.005394
PD375   PD        0.468075    0.370531    0.155244     0.005394
AU376   AU        0.466869    0.402744    0.188972     0.007504
AU377   AU        0.500069    0.366626    0.187122     0.007504
AU378   AU        0.500393    0.401251    0.155706     0.007504
AU379   AU        0.534233    0.369986    0.155027     0.007504
AU380   AU        0.535911    0.400632    0.188931     0.007504
AU381   AU        0.566015    0.366389    0.187884     0.007504
AU382   AU        0.566838    0.401701    0.154748     0.007504
PD383   PD        0.600163    0.366413    0.156094     0.005394
AU384   AU        0.598223    0.400617    0.189663     0.007504
AU385   AU        0.631341    0.369822    0.188044     0.007504
AU386   AU        0.632862    0.403842    0.154305     0.007504
AU387   AU        0.667878    0.367791    0.156167     0.007504
AU388   AU        0.664491    0.400653    0.186674     0.007504
AU389   AU        0.700257    0.368521    0.187662     0.007504
AU390   AU        0.699414    0.403200    0.154980     0.007504
AU391   AU        0.730677    0.369053    0.154875     0.007504
AU392   AU        0.733779    0.400671    0.190684     0.007504
PD393   PD        0.765589    0.365483    0.188753     0.005394
AU394   AU        0.766425    0.400021    0.156162     0.007504
PD395   PD        0.802149    0.396577    0.189792     0.005394
PD396   PD        0.130470    0.504326    0.157395     0.005394
PD397   PD        0.168080    0.436352    0.189704     0.005394
PD398   PD        0.171479    0.467205    0.155172     0.005394
PD399   PD        0.201936    0.434178    0.160151     0.005394
AU400   AU        0.200713    0.468748    0.190625     0.007504
AU401   AU        0.235079    0.434678    0.188123     0.007504
AU402   AU        0.233922    0.467970    0.157186     0.007504
AU403   AU        0.266232    0.434674    0.155457     0.007504
PD404   PD        0.267273    0.465160    0.190425     0.005394
AU405   AU        0.300264    0.435184    0.188823     0.007504
AU406   AU        0.301383    0.468163    0.154336     0.007504
AU407   AU        0.334069    0.436055    0.155520     0.007504
AU408   AU        0.332303    0.468218    0.190284     0.007504
AU409   AU        0.367849    0.438037    0.189199     0.007504
PD410   PD        0.367712    0.469492    0.154339     0.005394
PD411   PD        0.400629    0.433855    0.154907     0.005394
AU412   AU        0.401883    0.468488    0.189992     0.007504
AU413   AU        0.433788    0.436557    0.189004     0.007504
PD414   PD        0.431788    0.468277    0.156690     0.005394
PD415   PD        0.467278    0.435422    0.156003     0.005394
AU416   AU        0.466010    0.468554    0.187796     0.007504
AU417   AU        0.500529    0.434108    0.187724     0.007504
PD418   PD        0.497691    0.468643    0.156780     0.005394
AU419   AU        0.534245    0.434836    0.155938     0.007504
PD420   PD        0.533404    0.467465    0.188890     0.005394
PD421   PD        0.566738    0.432948    0.188223     0.005394
AU422   AU        0.565009    0.469610    0.155612     0.007504
AU423   AU        0.599314    0.432700    0.154027     0.007504
PD424   PD        0.597850    0.470012    0.188316     0.005394
PD425   PD        0.631705    0.433956    0.188003     0.005394
PD426   PD        0.631246    0.466901    0.154388     0.005394
AU427   AU        0.664296    0.434171    0.154908     0.007504
PD428   PD        0.665564    0.469532    0.186451     0.005394
AU429   AU        0.698641    0.432971    0.188914     0.007504
PD430   PD        0.700437    0.466907    0.156512     0.005394
PD431   PD        0.735311    0.434640    0.157917     0.005394
PD432   PD        0.733933    0.468717    0.189916     0.005394
PD433   PD        0.764729    0.434306    0.185286     0.005394
AU434   AU        0.766014    0.436208    0.124197     0.007504
PD435   PD        0.797503    0.466140    0.185280     0.005394
AU436   AU        0.169002    0.502000    0.189600     0.007504
AU437   AU        0.201120    0.500474    0.154865     0.007504
AU438   AU        0.202332    0.533964    0.190534     0.007504
AU439   AU        0.234296    0.500225    0.190872     0.007504
PD440   PD        0.234793    0.532348    0.157964     0.005394
AU441   AU        0.267648    0.500472    0.157547     0.007504
AU442   AU        0.268364    0.534336    0.188464     0.007504
AU443   AU        0.300921    0.500212    0.188813     0.007504
AU444   AU        0.299802    0.532092    0.154921     0.007504
PD445   PD        0.335148    0.500155    0.156770     0.005394
PD446   PD        0.333440    0.534121    0.188564     0.005394
AU447   AU        0.367412    0.500879    0.189743     0.007504
AU448   AU        0.368027    0.534002    0.157096     0.007504
PD449   PD        0.400168    0.501008    0.157179     0.005394
PD450   PD        0.398176    0.536168    0.191108     0.005394
PD451   PD        0.433654    0.501627    0.189838     0.005394
AU452   AU        0.434198    0.533259    0.156928     0.007504
AU453   AU        0.468288    0.502782    0.156009     0.007504
AU454   AU        0.467612    0.534813    0.188605     0.007504
AU455   AU        0.498973    0.502334    0.190422     0.007504
PD456   PD        0.500892    0.533529    0.156201     0.005394
AU457   AU        0.532166    0.500681    0.155852     0.007504
PD458   PD        0.529604    0.536663    0.190308     0.005394
PD459   PD        0.565129    0.502642    0.190432     0.005394
PD460   PD        0.565692    0.534238    0.153775     0.005394
PD461   PD        0.597038    0.502608    0.154856     0.005394
PD462   PD        0.600100    0.533244    0.188405     0.005394
PD463   PD        0.631848    0.501729    0.188106     0.005394
PD464   PD        0.634504    0.535977    0.155019     0.005394
PD465   PD        0.664204    0.502810    0.153625     0.005394
PD466   PD        0.666058    0.534936    0.188718     0.005394
PD467   PD        0.701523    0.503372    0.189824     0.005394
AU468   AU        0.698940    0.534992    0.155032     0.007504
PD469   PD        0.734335    0.500264    0.156290     0.005394
AU470   AU        0.733376    0.537685    0.188779     0.007504
PD471   PD        0.764879    0.503463    0.189190     0.005394
PD472   PD        0.165124    0.538449    0.157499     0.005394
PD473   PD        0.200986    0.567711    0.154251     0.005394
PD474   PD        0.199899    0.598095    0.189243     0.005394
AU475   AU        0.234855    0.566006    0.188733     0.007504
AU476   AU        0.234079    0.598378    0.154620     0.007504
AU477   AU        0.267635    0.566266    0.155770     0.007504
PD478   PD        0.267814    0.600021    0.187944     0.005394
AU479   AU        0.299563    0.565494    0.189101     0.007504
AU480   AU        0.297910    0.601224    0.154247     0.007504
PD481   PD        0.330674    0.567811    0.156199     0.005394
AU482   AU        0.333097    0.598656    0.187040     0.007504
PD483   PD        0.363975    0.566171    0.186220     0.005394
PD484   PD        0.366641    0.603120    0.155230     0.005394
PD485   PD        0.398522    0.566642    0.156245     0.005394
PD486   PD        0.398124    0.599316    0.189076     0.005394
PD487   PD        0.432714    0.568913    0.190769     0.005394
PD488   PD        0.430694    0.601657    0.156232     0.005394
AU489   AU        0.465632    0.567732    0.156596     0.007504
PD490   PD        0.465270    0.602624    0.189235     0.005394
AU491   AU        0.499710    0.565877    0.189250     0.007504
PD492   PD        0.498767    0.599856    0.154981     0.005394
PD493   PD        0.531459    0.568704    0.154098     0.005394
PD494   PD        0.531815    0.599789    0.186543     0.005394
AU495   AU        0.565597    0.565651    0.188329     0.007504
PD496   PD        0.565329    0.601301    0.155580     0.005394
AU497   AU        0.596653    0.567562    0.154043     0.007504
PD498   PD        0.599947    0.600765    0.187616     0.005394
AU499   AU        0.633716    0.567494    0.188187     0.007504
PD500   PD        0.631761    0.599419    0.155089     0.005394
AU501   AU        0.666685    0.567402    0.156083     0.007504
AU502   AU        0.664683    0.599828    0.189994     0.007504
AU503   AU        0.697997    0.567031    0.189927     0.007504
AU504   AU        0.697887    0.601418    0.155902     0.007504
PD505   PD        0.731358    0.567764    0.155882     0.005394
PD506   PD        0.731719    0.600026    0.186873     0.005394
PD507   PD        0.790394    0.535478    0.117540     0.005394
AU508   AU        0.233456    0.631151    0.188711     0.007504
PD509   PD        0.265975    0.634103    0.156866     0.005394
PD510   PD        0.269072    0.663602    0.190885     0.005394
AU511   AU        0.302007    0.631187    0.189801     0.007504
PD512   PD        0.298585    0.665870    0.156689     0.005394
AU513   AU        0.332611    0.634252    0.155186     0.007504
AU514   AU        0.332545    0.665892    0.190424     0.007504
AU515   AU        0.364780    0.633675    0.189961     0.007504
AU516   AU        0.365667    0.665534    0.156479     0.007504
PD517   PD        0.399959    0.633480    0.157038     0.005394
PD518   PD        0.397652    0.668257    0.190421     0.005394
PD519   PD        0.433308    0.633401    0.189348     0.005394
AU520   AU        0.432293    0.666948    0.155037     0.007504
PD521   PD        0.464939    0.633290    0.154596     0.005394
AU522   AU        0.464989    0.667144    0.189372     0.007504
PD523   PD        0.497132    0.633965    0.189341     0.005394
PD524   PD        0.496576    0.666387    0.157797     0.005394
PD525   PD        0.532887    0.633279    0.155390     0.005394
AU526   AU        0.533795    0.668266    0.187094     0.007504
PD527   PD        0.567264    0.634957    0.186264     0.005394
PD528   PD        0.569079    0.668696    0.159003     0.005394
AU529   AU        0.599454    0.633916    0.154743     0.007504
AU530   AU        0.596300    0.668484    0.187437     0.007504
AU531   AU        0.632556    0.633580    0.187899     0.007504
AU532   AU        0.630916    0.665917    0.154546     0.007504
AU533   AU        0.664626    0.633123    0.156287     0.007504
PD534   PD        0.664577    0.667267    0.187098     0.005394
PD535   PD        0.698891    0.630321    0.191024     0.005394
AU536   AU        0.302124    0.700423    0.191952     0.007504
AU537   AU        0.332450    0.698197    0.157558     0.007504
PD538   PD        0.335695    0.733137    0.188770     0.005394
AU539   AU        0.367078    0.700195    0.189179     0.007504
AU540   AU        0.398074    0.699439    0.155958     0.007504
AU541   AU        0.398969    0.734023    0.189775     0.007504
PD542   PD        0.432568    0.703230    0.185884     0.005394
PD543   PD        0.434379    0.728987    0.155831     0.005394
PD544   PD        0.465373    0.697418    0.156486     0.005394
PD545   PD        0.469544    0.733879    0.186898     0.005394
PD546   PD        0.500355    0.699317    0.185113     0.005394
AU547   AU        0.495323    0.733573    0.155665     0.007504
PD548   PD        0.531971    0.701568    0.154947     0.005394
AU549   AU        0.530685    0.733472    0.188660     0.007504
PD550   PD        0.568398    0.703180    0.191853     0.005394
PD551   PD        0.597879    0.701804    0.154204     0.005394
PD552   PD        0.596409    0.731743    0.188638     0.005394
PD553   PD        0.631859    0.701001    0.187865     0.005394
PD554   PD        0.467273    0.798865    0.122025     0.005394
AU555   AU        0.497351    0.767715    0.188053     0.007504
PD556   PD        0.399273    0.070034    0.254969     0.005394
PD557   PD        0.461067    0.040396    0.223481     0.005394
PD558   PD        0.565858    0.067466    0.220294     0.005394
PD559   PD        0.265086    0.137522    0.259598     0.005394
PD560   PD        0.287956    0.070147    0.216896     0.005394
PD561   PD        0.299521    0.134502    0.221572     0.005394
PD562   PD        0.335798    0.137926    0.257518     0.005394
AU563   AU        0.365686    0.104230    0.257648     0.007504
PD564   PD        0.368181    0.138696    0.226110     0.005394
PD565   PD        0.382461    0.062945    0.200703     0.005394
PD566   PD        0.402835    0.135861    0.254715     0.005394
PD567   PD        0.435431    0.100656    0.260189     0.005394
PD568   PD        0.435104    0.137336    0.224646     0.005394
PD569   PD        0.467927    0.108326    0.226047     0.005394
AU570   AU        0.466330    0.138340    0.257536     0.007504
PD571   PD        0.494012    0.079527    0.268207     0.005394
PD572   PD        0.500383    0.137114    0.223710     0.005394
PD573   PD        0.530319    0.100356    0.224301     0.005394
PD574   PD        0.535667    0.138142    0.254891     0.005394
PD575   PD        0.566394    0.102413    0.257068     0.005394
PD576   PD        0.597610    0.106634    0.224259     0.005394
PD577   PD        0.598061    0.137856    0.256950     0.005394
PD578   PD        0.633953    0.104686    0.259226     0.005394
PD579   PD        0.631088    0.136774    0.220858     0.005394
PD580   PD        0.667236    0.134678    0.254790     0.005394
PD581   PD        0.201144    0.200035    0.256753     0.005394
PD582   PD        0.235044    0.171414    0.258228     0.005394
AU583   AU        0.235890    0.200025    0.223881     0.007504
AU584   AU        0.267321    0.166336    0.224899     0.007504
AU585   AU        0.268315    0.203705    0.257238     0.007504
PD586   PD        0.303751    0.171805    0.257662     0.005394
PD587   PD        0.300944    0.205504    0.224547     0.005394
AU588   AU        0.332781    0.168614    0.222262     0.007504
AU589   AU        0.335671    0.203842    0.255748     0.007504
PD590   PD        0.361908    0.168273    0.258589     0.005394
PD591   PD        0.367403    0.200566    0.221665     0.005394
PD592   PD        0.398141    0.169365    0.223489     0.005394
AU593   AU        0.399109    0.202816    0.256728     0.007504
AU594   AU        0.430375    0.168609    0.257330     0.007504
AU595   AU        0.433910    0.201208    0.224377     0.007504
PD596   PD        0.466518    0.170650    0.225379     0.005394
PD597   PD        0.465710    0.203674    0.257255     0.005394
PD598   PD        0.499923    0.167672    0.255900     0.005394
PD599   PD        0.499444    0.205830    0.221993     0.005394
PD600   PD        0.533204    0.172269    0.223552     0.005394
AU601   AU        0.533714    0.203648    0.252893     0.007504
PD602   PD        0.566167    0.173111    0.257464     0.005394
AU603   AU        0.567937    0.204855    0.221066     0.007504
PD604   PD        0.599775    0.172040    0.221653     0.005394
AU605   AU        0.601824    0.201744    0.255264     0.007504
PD606   PD        0.636416    0.168636    0.257720     0.005394
AU607   AU        0.634505    0.202593    0.222622     0.007504
AU608   AU        0.665621    0.169601    0.224234     0.007504
AU609   AU        0.666366    0.203742    0.256753     0.007504
PD610   PD        0.699158    0.170335    0.257649     0.005394
PD611   PD        0.697170    0.202054    0.222599     0.005394
PD612   PD        0.734492    0.203486    0.252123     0.005394
PD613   PD        0.134166    0.272595    0.253807     0.005394
PD614   PD        0.167900    0.235624    0.258331     0.005394
PD615   PD        0.168966    0.269900    0.222539     0.005394
PD616   PD        0.202237    0.234465    0.221120     0.005394
AU617   AU        0.201683    0.268801    0.255600     0.007504
AU618   AU        0.231777    0.234355    0.256436     0.007504
AU619   AU        0.233851    0.267674    0.224231     0.007504
AU620   AU        0.266788    0.236249    0.223275     0.007504
AU621   AU        0.265308    0.267943    0.256228     0.007504
AU622   AU        0.301020    0.236530    0.256083     0.007504
AU623   AU        0.301799    0.268956    0.223236     0.007504
PD624   PD        0.336380    0.236878    0.222958     0.005394
PD625   PD        0.334570    0.270022    0.256055     0.005394
AU626   AU        0.368705    0.237485    0.253333     0.007504
PD627   PD        0.367489    0.268754    0.222105     0.005394
PD628   PD        0.401642    0.236770    0.220581     0.005394
AU629   AU        0.401144    0.269946    0.255094     0.007504
AU630   AU        0.433240    0.236015    0.255579     0.007504
PD631   PD        0.435101    0.268368    0.222668     0.005394
PD632   PD        0.466335    0.236526    0.224297     0.005394
PD633   PD        0.467189    0.267583    0.256056     0.005394
AU634   AU        0.501885    0.234661    0.255106     0.007504
AU635   AU        0.499366    0.267805    0.222270     0.007504
PD636   PD        0.534498    0.236707    0.220786     0.005394
AU637   AU        0.533285    0.268356    0.255299     0.007504
PD638   PD        0.567475    0.237583    0.255188     0.005394
AU639   AU        0.568141    0.265762    0.222056     0.007504
AU640   AU        0.602599    0.236169    0.220970     0.007504
AU641   AU        0.601676    0.269176    0.256198     0.007504
PD642   PD        0.634293    0.237244    0.256057     0.005394
AU643   AU        0.633117    0.268456    0.224274     0.007504
AU644   AU        0.665032    0.236824    0.223080     0.007504
AU645   AU        0.666836    0.271166    0.253232     0.007504
PD646   PD        0.697601    0.238271    0.254252     0.005394
AU647   AU        0.701002    0.270172    0.221440     0.007504
PD648   PD        0.783931    0.178454    0.186576     0.005394
AU649   AU        0.731864    0.269314    0.253495     0.007504
PD650   PD        0.764330    0.235619    0.255039     0.005394
AU651   AU        0.767954    0.272993    0.221546     0.007504
PD652   PD        0.796166    0.270030    0.257753     0.005394
PD653   PD        0.136017    0.336173    0.257924     0.005394
PD654   PD        0.166036    0.300523    0.256803     0.005394
PD655   PD        0.167805    0.337041    0.225703     0.005394
AU656   AU        0.200083    0.303804    0.222680     0.007504
AU657   AU        0.200835    0.334499    0.258358     0.007504
PD658   PD        0.233857    0.300976    0.255661     0.005394
PD659   PD        0.235615    0.337249    0.224608     0.005394
PD660   PD        0.268358    0.304264    0.225296     0.005394
PD661   PD        0.269184    0.337331    0.254971     0.005394
PD662   PD        0.302793    0.301168    0.257035     0.005394
PD663   PD        0.304186    0.334265    0.222825     0.005394
PD664   PD        0.334538    0.300784    0.222619     0.005394
AU665   AU        0.333547    0.335200    0.256360     0.007504
PD666   PD        0.363658    0.304206    0.257827     0.005394
PD667   PD        0.368002    0.335580    0.224682     0.005394
AU668   AU        0.400180    0.302279    0.221565     0.007504
PD669   PD        0.399894    0.338562    0.256614     0.005394
AU670   AU        0.433554    0.303038    0.255360     0.007504
PD671   PD        0.433905    0.336303    0.219678     0.005394
PD672   PD        0.467985    0.302775    0.222052     0.005394
PD673   PD        0.469263    0.335380    0.257924     0.005394
PD674   PD        0.498565    0.300562    0.255489     0.005394
PD675   PD        0.499690    0.334930    0.219789     0.005394
AU676   AU        0.534006    0.299448    0.222333     0.007504
PD677   PD        0.533534    0.332424    0.256962     0.005394
PD678   PD        0.567174    0.301793    0.253344     0.005394
AU679   AU        0.565939    0.334511    0.221117     0.007504
AU680   AU        0.600806    0.302901    0.222330     0.007504
AU681   AU        0.601456    0.336545    0.255312     0.007504
AU682   AU        0.633769    0.302461    0.254773     0.007504
AU683   AU        0.634616    0.337062    0.221353     0.007504
AU684   AU        0.665240    0.303282    0.221026     0.007504
AU685   AU        0.665667    0.335641    0.255467     0.007504
AU686   AU        0.699961    0.302164    0.256165     0.007504
AU687   AU        0.697871    0.335629    0.221010     0.007504
PD688   PD        0.733290    0.303413    0.222388     0.005394
PD689   PD        0.732886    0.335760    0.256151     0.005394
AU690   AU        0.763064    0.303314    0.255466     0.007504
AU691   AU        0.766721    0.335424    0.223021     0.007504
AU692   AU        0.798591    0.336544    0.255510     0.007504
PD693   PD        0.101502    0.367655    0.251893     0.005394
PD694   PD        0.064326    0.367907    0.226816     0.005394
AU695   AU        0.137486    0.401324    0.256848     0.007504
AU696   AU        0.170034    0.367859    0.257295     0.007504
AU697   AU        0.169237    0.403321    0.223961     0.007504
AU698   AU        0.200763    0.368870    0.224231     0.007504
AU699   AU        0.201750    0.402373    0.255327     0.007504
PD700   PD        0.234181    0.369566    0.258452     0.005394
AU701   AU        0.235279    0.401330    0.222618     0.007504
AU702   AU        0.267921    0.368787    0.223357     0.007504
AU703   AU        0.268344    0.403283    0.255442     0.007504
AU704   AU        0.302871    0.369541    0.256686     0.007504
AU705   AU        0.300635    0.404958    0.224829     0.007504
AU706   AU        0.334321    0.370328    0.223033     0.007504
PD707   PD        0.331891    0.403788    0.256895     0.005394
PD708   PD        0.367125    0.369513    0.255933     0.005394
PD709   PD        0.367593    0.402772    0.222870     0.005394
AU710   AU        0.399995    0.368472    0.220590     0.007504
AU711   AU        0.400772    0.400390    0.255584     0.007504
AU712   AU        0.432907    0.368385    0.255357     0.007504
AU713   AU        0.432665    0.402088    0.223076     0.007504
AU714   AU        0.466133    0.369119    0.223290     0.007504
PD715   PD        0.466349    0.403013    0.256091     0.005394
PD716   PD        0.501693    0.369181    0.254035     0.005394
PD717   PD        0.497949    0.402122    0.219126     0.005394
PD718   PD        0.534613    0.367424    0.223439     0.005394
PD719   PD        0.535386    0.399144    0.254230     0.005394
AU720   AU        0.568079    0.369171    0.255021     0.007504
PD721   PD        0.565856    0.402524    0.222721     0.005394
PD722   PD        0.597392    0.366554    0.221039     0.005394
PD723   PD        0.602280    0.400613    0.253662     0.005394
PD724   PD        0.632610    0.369693    0.254214     0.005394
AU725   AU        0.631687    0.400152    0.220959     0.007504
PD726   PD        0.667092    0.369332    0.223288     0.005394
AU727   AU        0.665806    0.401709    0.257056     0.007504
PD728   PD        0.702099    0.369367    0.255936     0.005394
PD729   PD        0.697052    0.399488    0.220871     0.005394
PD730   PD        0.732485    0.367300    0.223472     0.005394
PD731   PD        0.735173    0.401808    0.254958     0.005394
AU732   AU        0.765614    0.369464    0.255554     0.007504
AU733   AU        0.764869    0.401371    0.222165     0.007504
PD734   PD        0.797785    0.369933    0.222486     0.005394
AU735   AU        0.797366    0.402411    0.256124     0.007504
PD736   PD        0.867391    0.408590    0.251685     0.005394
PD737   PD        0.104550    0.434165    0.255619     0.005394
PD738   PD        0.136226    0.433751    0.223652     0.005394
AU739   AU        0.134497    0.470106    0.256856     0.007504
AU740   AU        0.169750    0.436111    0.258235     0.007504
AU741   AU        0.167611    0.469002    0.223962     0.007504
AU742   AU        0.200862    0.436944    0.222915     0.007504
AU743   AU        0.200348    0.468738    0.255858     0.007504
AU744   AU        0.233453    0.435028    0.255740     0.007504
PD745   PD        0.235809    0.467621    0.222336     0.005394
AU746   AU        0.266143    0.434358    0.222462     0.007504
AU747   AU        0.267091    0.468723    0.256615     0.007504
AU748   AU        0.301294    0.436375    0.256946     0.007504
AU749   AU        0.301005    0.468337    0.221737     0.007504
AU750   AU        0.334923    0.435912    0.222882     0.007504
AU751   AU        0.335723    0.468174    0.255854     0.007504
PD752   PD        0.366455    0.436719    0.255392     0.005394
AU753   AU        0.367846    0.469494    0.223910     0.007504
PD754   PD        0.399646    0.435616    0.223540     0.005394
AU755   AU        0.400308    0.468433    0.255157     0.007504
AU756   AU        0.432278    0.433404    0.254970     0.007504
AU757   AU        0.434595    0.468412    0.222789     0.007504
AU758   AU        0.467028    0.434355    0.221354     0.007504
AU759   AU        0.467340    0.467853    0.255524     0.007504
AU760   AU        0.499934    0.434971    0.254354     0.007504
PD761   PD        0.496924    0.469001    0.222081     0.005394
PD762   PD        0.533470    0.434064    0.221310     0.005394
AU763   AU        0.530568    0.468993    0.253328     0.007504
AU764   AU        0.566382    0.437367    0.255310     0.007504
AU765   AU        0.566896    0.468871    0.220794     0.007504
PD766   PD        0.600116    0.434177    0.221517     0.005394
AU767   AU        0.600628    0.467790    0.255898     0.007504
PD768   PD        0.632068    0.435143    0.251569     0.005394
PD769   PD        0.633733    0.469362    0.220683     0.005394
AU770   AU        0.666787    0.433709    0.222438     0.007504
AU771   AU        0.667719    0.467618    0.257752     0.007504
PD772   PD        0.699449    0.435544    0.254751     0.005394
PD773   PD        0.700869    0.468432    0.221013     0.005394
PD774   PD        0.731405    0.435716    0.221027     0.005394
PD775   PD        0.732539    0.468743    0.257327     0.005394
AU776   AU        0.766459    0.434136    0.254901     0.007504
PD777   PD        0.763446    0.469902    0.222390     0.005394
PD778   PD        0.796726    0.435856    0.222641     0.005394
AU779   AU        0.796199    0.469484    0.256558     0.007504
AU780   AU        0.829265    0.434930    0.255000     0.007504
AU781   AU        0.103896    0.502946    0.257140     0.007504
AU782   AU        0.137391    0.501079    0.223570     0.007504
AU783   AU        0.136764    0.532470    0.253697     0.007504
AU784   AU        0.169444    0.500985    0.255208     0.007504
AU785   AU        0.168747    0.535432    0.222061     0.007504
AU786   AU        0.200871    0.502026    0.223485     0.007504
AU787   AU        0.202690    0.532019    0.256497     0.007504
AU788   AU        0.233712    0.501023    0.254485     0.007504
AU789   AU        0.234561    0.535390    0.222708     0.007504
PD790   PD        0.267727    0.499183    0.221735     0.005394
PD791   PD        0.266643    0.533784    0.254871     0.005394
AU792   AU        0.302206    0.498370    0.255308     0.007504
AU793   AU        0.300405    0.531002    0.222162     0.007504
AU794   AU        0.333976    0.501991    0.221992     0.007504
AU795   AU        0.332182    0.533056    0.255838     0.007504
PD796   PD        0.365311    0.500295    0.254768     0.005394
PD797   PD        0.367722    0.533725    0.224881     0.005394
PD798   PD        0.403128    0.500858    0.222817     0.005394
PD799   PD        0.401704    0.532174    0.257952     0.005394
AU800   AU        0.435426    0.499779    0.257136     0.007504
PD801   PD        0.433228    0.537100    0.221851     0.005394
AU802   AU        0.465920    0.502926    0.223942     0.007504
AU803   AU        0.463974    0.535372    0.255518     0.007504
PD804   PD        0.498142    0.503749    0.259114     0.005394
AU805   AU        0.497842    0.535348    0.223740     0.007504
PD806   PD        0.531607    0.502247    0.222858     0.005394
AU807   AU        0.534196    0.536360    0.255064     0.007504
PD808   PD        0.564009    0.499958    0.254598     0.005394
AU809   AU        0.564959    0.535612    0.222931     0.007504
AU810   AU        0.598936    0.501690    0.222163     0.007504
AU811   AU        0.599341    0.532572    0.256641     0.007504
AU812   AU        0.632611    0.501924    0.253321     0.007504
PD813   PD        0.633672    0.533313    0.221741     0.005394
PD814   PD        0.666542    0.500922    0.223305     0.005394
AU815   AU        0.665026    0.533995    0.256079     0.007504
AU816   AU        0.700955    0.502406    0.254936     0.007504
AU817   AU        0.699170    0.536023    0.222279     0.007504
AU818   AU        0.733301    0.503074    0.223317     0.007504
PD819   PD        0.733206    0.534939    0.255668     0.005394
AU820   AU        0.763322    0.499707    0.256205     0.007504
AU821   AU        0.765754    0.536422    0.222962     0.007504
AU822   AU        0.798151    0.501231    0.222103     0.007504
PD823   PD        0.800567    0.532284    0.255512     0.005394
AU824   AU        0.831042    0.532577    0.287280     0.007504
PD825   PD        0.132126    0.597872    0.255361     0.005394
AU826   AU        0.170508    0.566235    0.256578     0.007504
PD827   PD        0.166624    0.603958    0.219573     0.005394
PD828   PD        0.201388    0.565612    0.221956     0.005394
PD829   PD        0.202374    0.600593    0.254467     0.005394
AU830   AU        0.234457    0.567946    0.255390     0.007504
AU831   AU        0.234284    0.600015    0.221681     0.007504
AU832   AU        0.268406    0.566986    0.223475     0.007504
PD833   PD        0.267478    0.601505    0.254812     0.005394
PD834   PD        0.300668    0.564585    0.256053     0.005394
PD835   PD        0.299750    0.599757    0.224227     0.005394
AU836   AU        0.331957    0.566425    0.224512     0.007504
PD837   PD        0.334719    0.600286    0.257149     0.005394
AU838   AU        0.367230    0.566126    0.255056     0.007504
PD839   PD        0.366819    0.599264    0.222890     0.005394
PD840   PD        0.400218    0.568335    0.224636     0.005394
AU841   AU        0.398793    0.598961    0.255577     0.007504
AU842   AU        0.433196    0.568472    0.256827     0.007504
AU843   AU        0.432365    0.601315    0.221277     0.007504
PD844   PD        0.469058    0.569323    0.221989     0.005394
PD845   PD        0.466528    0.598724    0.259016     0.005394
PD846   PD        0.499293    0.568101    0.257169     0.005394
PD847   PD        0.500305    0.602771    0.222974     0.005394
PD848   PD        0.533154    0.568823    0.224312     0.005394
AU849   AU        0.532375    0.601605    0.256037     0.007504
PD850   PD        0.566259    0.568164    0.256103     0.005394
AU851   AU        0.567326    0.599260    0.221292     0.007504
PD852   PD        0.602227    0.564731    0.223562     0.005394
PD853   PD        0.599008    0.597734    0.255643     0.005394
PD854   PD        0.633201    0.566643    0.255935     0.005394
PD855   PD        0.632142    0.598852    0.221733     0.005394
AU856   AU        0.663966    0.566912    0.222346     0.007504
AU857   AU        0.664773    0.600376    0.257777     0.007504
AU858   AU        0.698532    0.565221    0.256149     0.007504
PD859   PD        0.699640    0.597947    0.222778     0.005394
PD860   PD        0.732708    0.568319    0.222300     0.005394
AU861   AU        0.733470    0.598091    0.253790     0.007504
PD862   PD        0.766891    0.567589    0.257471     0.005394
AU863   AU        0.763373    0.600209    0.220630     0.007504
PD864   PD        0.798798    0.601351    0.258509     0.005394
AU865   AU        0.167026    0.632077    0.256344     0.007504
PD866   PD        0.200575    0.631226    0.222342     0.005394
PD867   PD        0.201953    0.665984    0.257116     0.005394
AU868   AU        0.234689    0.632679    0.255341     0.007504
AU869   AU        0.234221    0.665695    0.220701     0.007504
AU870   AU        0.268038    0.633476    0.220271     0.007504
AU871   AU        0.267788    0.666017    0.256272     0.007504
AU872   AU        0.300429    0.632203    0.254997     0.007504
AU873   AU        0.300644    0.664700    0.222799     0.007504
PD874   PD        0.334714    0.632753    0.221479     0.005394
AU875   AU        0.333422    0.666322    0.256998     0.007504
AU876   AU        0.365412    0.633695    0.254741     0.007504
AU877   AU        0.366301    0.667813    0.222577     0.007504
AU878   AU        0.398677    0.635695    0.224496     0.007504
AU879   AU        0.399760    0.667268    0.257375     0.007504
PD880   PD        0.434257    0.634444    0.255213     0.005394
PD881   PD        0.432228    0.666669    0.224036     0.005394
PD882   PD        0.467625    0.632753    0.222848     0.005394
AU883   AU        0.466129    0.668701    0.256005     0.007504
AU884   AU        0.501675    0.633969    0.255422     0.007504
PD885   PD        0.501065    0.668234    0.220162     0.005394
PD886   PD        0.534816    0.635913    0.221254     0.005394
PD887   PD        0.532672    0.666924    0.258369     0.005394
AU888   AU        0.565585    0.631996    0.255915     0.007504
PD889   PD        0.564224    0.669505    0.224464     0.005394
AU890   AU        0.600361    0.633878    0.221125     0.007504
PD891   PD        0.601500    0.666821    0.253985     0.005394
AU892   AU        0.631594    0.632811    0.254902     0.007504
AU893   AU        0.633288    0.665860    0.222346     0.007504
PD894   PD        0.664584    0.631077    0.220028     0.005394
AU895   AU        0.666213    0.668240    0.255627     0.007504
AU896   AU        0.698534    0.631553    0.253843     0.007504
AU897   AU        0.697746    0.664698    0.222032     0.007504
AU898   AU        0.730551    0.631638    0.222571     0.007504
PD899   PD        0.733786    0.668188    0.253926     0.005394
AU900   AU        0.764996    0.632360    0.254754     0.007504
PD901   PD        0.234713    0.698853    0.256050     0.005394
AU902   AU        0.269931    0.699589    0.222845     0.007504
PD903   PD        0.268629    0.731168    0.256785     0.005394
AU904   AU        0.302273    0.699703    0.254852     0.007504
PD905   PD        0.303439    0.737518    0.223335     0.005394
AU906   AU        0.334350    0.698255    0.221884     0.007504
PD907   PD        0.335882    0.732824    0.256077     0.005394
AU908   AU        0.366966    0.699384    0.256228     0.007504
AU909   AU        0.366124    0.732894    0.222644     0.007504
PD910   PD        0.399464    0.700714    0.223825     0.005394
AU911   AU        0.401067    0.732097    0.256401     0.007504
PD912   PD        0.432920    0.699846    0.254007     0.005394
AU913   AU        0.434579    0.731264    0.222077     0.007504
AU914   AU        0.466371    0.701155    0.219774     0.007504
AU915   AU        0.466327    0.731428    0.255398     0.007504
PD916   PD        0.498807    0.699255    0.255621     0.005394
PD917   PD        0.498923    0.732175    0.218624     0.005394
AU918   AU        0.532488    0.701598    0.224144     0.007504
AU919   AU        0.531434    0.735619    0.256725     0.007504
AU920   AU        0.568704    0.700219    0.255690     0.007504
AU921   AU        0.565347    0.733198    0.224262     0.007504
AU922   AU        0.600100    0.700258    0.223103     0.007504
AU923   AU        0.599347    0.732070    0.256951     0.007504
AU924   AU        0.633546    0.700694    0.255951     0.007504
PD925   PD        0.630832    0.733535    0.223005     0.005394
PD926   PD        0.664671    0.702943    0.222497     0.005394
PD927   PD        0.666726    0.731911    0.251036     0.005394
PD928   PD        0.700355    0.699467    0.254368     0.005394
PD929   PD        0.304714    0.799899    0.280043     0.005394
PD930   PD        0.368216    0.767187    0.254125     0.005394
PD931   PD        0.402885    0.767432    0.224918     0.005394
PD932   PD        0.400991    0.797603    0.254092     0.005394
AU933   AU        0.434579    0.766902    0.256014     0.007504
PD934   PD        0.468374    0.766157    0.220872     0.005394
PD935   PD        0.499199    0.799026    0.223186     0.005394
AU936   AU        0.499362    0.763761    0.252504     0.007504
AU937   AU        0.533691    0.764527    0.220878     0.007504
PD938   PD        0.532333    0.795789    0.253484     0.005394
AU939   AU        0.564249    0.765978    0.255164     0.007504
PD940   PD        0.633981    0.766976    0.252011     0.005394
PD941   PD        0.333271    0.068538    0.324653     0.005394
PD942   PD        0.364358    0.067627    0.285963     0.005394
PD943   PD        0.402251    0.064507    0.322250     0.005394
PD944   PD        0.431275    0.066063    0.289541     0.005394
PD945   PD        0.466390    0.069148    0.325258     0.005394
PD946   PD        0.532701    0.032752    0.292379     0.005394
PD947   PD        0.534486    0.068965    0.322985     0.005394
PD948   PD        0.566367    0.071716    0.286521     0.005394
PD949   PD        0.598225    0.075288    0.320521     0.005394
PD950   PD        0.234260    0.136590    0.291379     0.005394
AU951   AU        0.268747    0.137576    0.323729     0.007504
AU952   AU        0.298379    0.102562    0.324054     0.007504
PD953   PD        0.300972    0.133317    0.287949     0.005394
PD954   PD        0.336540    0.105077    0.292051     0.005394
AU955   AU        0.331142    0.135547    0.324612     0.007504
PD956   PD        0.366870    0.103512    0.326413     0.005394
PD957   PD        0.362779    0.136433    0.291320     0.005394
PD958   PD        0.400876    0.103579    0.288882     0.005394
PD959   PD        0.399735    0.135339    0.321839     0.005394
PD960   PD        0.432410    0.100530    0.320278     0.005394
AU961   AU        0.434731    0.138602    0.291297     0.007504
PD962   PD        0.466825    0.108330    0.294524     0.005394
PD963   PD        0.466529    0.137985    0.324078     0.005394
PD964   PD        0.498189    0.099954    0.325853     0.005394
PD965   PD        0.500790    0.135888    0.289855     0.005394
PD966   PD        0.535226    0.102938    0.286194     0.005394
AU967   AU        0.534242    0.134307    0.323667     0.007504
PD968   PD        0.566478    0.101095    0.321995     0.005394
AU969   AU        0.566282    0.136672    0.289685     0.007504
PD970   PD        0.601161    0.104058    0.289025     0.005394
PD971   PD        0.601042    0.137577    0.324127     0.005394
PD972   PD        0.633219    0.103557    0.319120     0.005394
PD973   PD        0.636232    0.138405    0.287556     0.005394
AU974   AU        0.662639    0.137921    0.323943     0.007504
PD975   PD        0.666189    0.105480    0.290992     0.005394
PD976   PD        0.105683    0.130425    0.288740     0.005394
PD977   PD        0.201362    0.171617    0.292589     0.005394
AU978   AU        0.201277    0.203178    0.325463     0.007504
PD979   PD        0.234974    0.168799    0.324041     0.005394
AU980   AU        0.234615    0.203462    0.291675     0.007504
PD981   PD        0.270112    0.170123    0.290443     0.005394
PD982   PD        0.266817    0.201936    0.322341     0.005394
PD983   PD        0.300916    0.170198    0.323453     0.005394
PD984   PD        0.298970    0.201599    0.290339     0.005394
PD985   PD        0.329958    0.169277    0.290196     0.005394
AU986   AU        0.335242    0.202611    0.324394     0.007504
AU987   AU        0.363137    0.168193    0.323516     0.007504
AU988   AU        0.366119    0.204576    0.290023     0.007504
PD989   PD        0.398224    0.169951    0.289122     0.005394
PD990   PD        0.398917    0.204549    0.323619     0.005394
PD991   PD        0.432557    0.172697    0.321613     0.005394
PD992   PD        0.434549    0.202628    0.290536     0.005394
PD993   PD        0.464804    0.171399    0.291326     0.005394
PD994   PD        0.470295    0.204545    0.321311     0.005394
PD995   PD        0.500301    0.171172    0.324906     0.005394
AU996   AU        0.499646    0.202369    0.289973     0.007504
PD997   PD        0.534339    0.167677    0.289012     0.005394
PD998   PD        0.535320    0.202587    0.322696     0.005394
PD999   PD        0.568124    0.168012    0.322710     0.005394
AU1000   AU        0.565759    0.204016    0.288893     0.007504
AU1001   AU        0.598426    0.169503    0.289025     0.007504
AU1002   AU        0.599426    0.201770    0.322848     0.007504
PD1003   PD        0.632395    0.171321    0.321614     0.005394
PD1004   PD        0.633982    0.203327    0.289248     0.005394
AU1005   AU        0.668017    0.169789    0.288533     0.007504
PD1006   PD        0.667612    0.202750    0.320237     0.005394
PD1007   PD        0.696867    0.168433    0.321789     0.005394
PD1008   PD        0.698828    0.204646    0.287841     0.005394
PD1009   PD        0.797170    0.161386    0.291161     0.005394
AU1010   AU        0.732696    0.202476    0.323772     0.007504
PD1011   PD        0.801556    0.204190    0.327209     0.005394
AU1012   AU        0.135811    0.268140    0.326747     0.007504
PD1013   PD        0.169134    0.235964    0.325571     0.005394
PD1014   PD        0.167015    0.268149    0.291387     0.005394
PD1015   PD        0.168102    0.203593    0.290454     0.005394
AU1016   AU        0.202340    0.269932    0.321175     0.007504
PD1017   PD        0.234101    0.235274    0.322213     0.005394
PD1018   PD        0.230357    0.265670    0.290647     0.005394
PD1019   PD        0.265969    0.235620    0.289378     0.005394
AU1020   AU        0.266855    0.268699    0.323898     0.007504
PD1021   PD        0.299227    0.235353    0.323184     0.005394
PD1022   PD        0.302745    0.268779    0.288523     0.005394
PD1023   PD        0.334158    0.236041    0.286784     0.005394
AU1024   AU        0.332563    0.269371    0.324554     0.007504
AU1025   AU        0.366613    0.237382    0.323441     0.007504
AU1026   AU        0.368628    0.269374    0.289012     0.007504
PD1027   PD        0.399984    0.236659    0.287677     0.005394
AU1028   AU        0.400646    0.267856    0.323462     0.007504
PD1029   PD        0.433957    0.235197    0.322313     0.005394
AU1030   AU        0.433268    0.269354    0.290861     0.007504
AU1031   AU        0.466582    0.234599    0.289027     0.007504
AU1032   AU        0.466376    0.268160    0.322764     0.007504
AU1033   AU        0.501698    0.237252    0.320183     0.007504
PD1034   PD        0.499740    0.270145    0.287561     0.005394
PD1035   PD        0.534065    0.235954    0.287229     0.005394
PD1036   PD        0.534247    0.268800    0.321246     0.005394
PD1037   PD        0.565957    0.238019    0.322279     0.005394
PD1038   PD        0.565791    0.271930    0.289958     0.005394
PD1039   PD        0.599285    0.235437    0.290699     0.005394
PD1040   PD        0.598658    0.270251    0.322204     0.005394
PD1041   PD        0.634485    0.237060    0.318602     0.005394
AU1042   AU        0.635869    0.269395    0.287715     0.007504
AU1043   AU        0.667941    0.238199    0.289184     0.007504
PD1044   PD        0.666667    0.268722    0.320557     0.005394
PD1045   PD        0.699603    0.237265    0.322549     0.005394
AU1046   AU        0.700048    0.269335    0.286161     0.007504
AU1047   AU        0.732761    0.234056    0.289729     0.007504
PD1048   PD        0.731107    0.269617    0.322507     0.005394
AU1049   AU        0.766801    0.232895    0.320676     0.007504
AU1050   AU        0.763502    0.269741    0.288788     0.007504
AU1051   AU        0.797019    0.270173    0.322282     0.007504
PD1052   PD        0.101058    0.300262    0.324598     0.005394
PD1053   PD        0.098984    0.335393    0.290855     0.005394
AU1054   AU        0.133947    0.299871    0.290158     0.007504
AU1055   AU        0.134921    0.335751    0.321856     0.007504
PD1056   PD        0.170944    0.302432    0.321413     0.005394
PD1057   PD        0.168713    0.333169    0.289057     0.005394
PD1058   PD        0.201411    0.299731    0.288514     0.005394
AU1059   AU        0.203001    0.334401    0.321596     0.007504
PD1060   PD        0.234748    0.300521    0.322786     0.005394
PD1061   PD        0.234767    0.333065    0.288796     0.005394
PD1062   PD        0.265877    0.300763    0.288505     0.005394
AU1063   AU        0.269556    0.335750    0.324870     0.007504
AU1064   AU        0.300183    0.301633    0.320698     0.007504
AU1065   AU        0.299262    0.335611    0.287982     0.007504
AU1066   AU        0.333192    0.301790    0.291091     0.007504
AU1067   AU        0.333229    0.334401    0.323872     0.007504
PD1068   PD        0.365009    0.299903    0.322277     0.005394
AU1069   AU        0.368003    0.335598    0.291158     0.007504
PD1070   PD        0.398263    0.304253    0.289850     0.005394
AU1071   AU        0.400304    0.336134    0.324180     0.007504
AU1072   AU        0.433709    0.301530    0.323224     0.007504
AU1073   AU        0.432164    0.334352    0.290315     0.007504
AU1074   AU        0.466302    0.300943    0.289634     0.007504
PD1075   PD        0.467176    0.335342    0.321341     0.005394
PD1076   PD        0.497934    0.302011    0.322891     0.005394
PD1077   PD        0.498096    0.333415    0.291272     0.005394
PD1078   PD        0.533924    0.301563    0.287523     0.005394
AU1079   AU        0.532672    0.335379    0.324221     0.007504
PD1080   PD        0.567831    0.304503    0.323107     0.005394
PD1081   PD        0.570548    0.334149    0.288401     0.005394
AU1082   AU        0.601203    0.301388    0.288534     0.007504
PD1083   PD        0.601229    0.337408    0.322544     0.005394
AU1084   AU        0.634123    0.302390    0.320531     0.007504
AU1085   AU        0.632754    0.337021    0.288503     0.007504
AU1086   AU        0.667645    0.303265    0.287619     0.007504
PD1087   PD        0.666429    0.333714    0.324145     0.005394
PD1088   PD        0.698273    0.301375    0.320817     0.005394
PD1089   PD        0.702054    0.335565    0.288248     0.005394
PD1090   PD        0.731574    0.302170    0.287599     0.005394
PD1091   PD        0.733056    0.333529    0.321512     0.005394
AU1092   AU        0.765369    0.302759    0.324680     0.007504
PD1093   PD        0.763924    0.334915    0.289075     0.005394
AU1094   AU        0.797042    0.301966    0.290027     0.007504
AU1095   AU        0.797823    0.337422    0.322629     0.007504
PD1096   PD        0.831284    0.302989    0.322292     0.005394
PD1097   PD        0.840257    0.345911    0.279230     0.005394
PD1098   PD        0.101783    0.368194    0.322893     0.005394
PD1099   PD        0.103488    0.400357    0.289403     0.005394
PD1100   PD        0.136565    0.368583    0.290700     0.005394
PD1101   PD        0.136702    0.402943    0.321709     0.005394
AU1102   AU        0.168285    0.367701    0.321898     0.007504
AU1103   AU        0.170650    0.401105    0.289627     0.007504
PD1104   PD        0.202327    0.367418    0.289691     0.005394
AU1105   AU        0.200980    0.400822    0.323542     0.007504
PD1106   PD        0.234581    0.366311    0.320866     0.005394
PD1107   PD        0.234787    0.403168    0.288913     0.005394
AU1108   AU        0.269343    0.369184    0.288710     0.007504
PD1109   PD        0.268997    0.400422    0.320191     0.005394
AU1110   AU        0.298819    0.367100    0.323393     0.007504
AU1111   AU        0.301151    0.402367    0.289746     0.007504
AU1112   AU        0.331956    0.366830    0.290409     0.007504
AU1113   AU        0.334626    0.402753    0.323548     0.007504
AU1114   AU        0.366210    0.368264    0.321916     0.007504
PD1115   PD        0.364895    0.400404    0.288820     0.005394
AU1116   AU        0.400490    0.368749    0.288470     0.007504
AU1117   AU        0.399577    0.400546    0.322715     0.007504
PD1118   PD        0.433723    0.367463    0.323217     0.005394
AU1119   AU        0.433569    0.402188    0.289069     0.007504
PD1120   PD        0.467020    0.370194    0.290851     0.005394
AU1121   AU        0.464214    0.401866    0.323739     0.007504
PD1122   PD        0.496956    0.367163    0.321861     0.005394
AU1123   AU        0.498774    0.401679    0.289483     0.007504
PD1124   PD        0.533127    0.369320    0.288204     0.005394
PD1125   PD        0.533105    0.400716    0.323061     0.005394
PD1126   PD        0.564888    0.368424    0.324232     0.005394
PD1127   PD        0.568897    0.401666    0.288728     0.005394
AU1128   AU        0.602455    0.368115    0.289965     0.007504
AU1129   AU        0.599176    0.402637    0.320362     0.007504
AU1130   AU        0.635037    0.369692    0.322358     0.007504
PD1131   PD        0.632515    0.403031    0.289462     0.005394
AU1132   AU        0.665517    0.368590    0.287512     0.007504
PD1133   PD        0.668762    0.401337    0.323439     0.005394
AU1134   AU        0.699366    0.368485    0.323668     0.007504
PD1135   PD        0.699876    0.401574    0.289468     0.005394
AU1136   AU        0.734122    0.368927    0.289042     0.007504
AU1137   AU        0.733427    0.401282    0.322094     0.007504
AU1138   AU        0.765126    0.369644    0.322988     0.007504
PD1139   PD        0.765728    0.402363    0.289470     0.005394
AU1140   AU        0.797458    0.368759    0.288807     0.007504
AU1141   AU        0.797171    0.401426    0.321365     0.007504
AU1142   AU        0.830818    0.369156    0.320510     0.007504
AU1143   AU        0.829956    0.401140    0.289311     0.007504
PD1144   PD        0.105162    0.432014    0.324494     0.005394
PD1145   PD        0.102152    0.467820    0.290870     0.005394
AU1146   AU        0.136317    0.434881    0.288367     0.007504
AU1147   AU        0.134832    0.465641    0.322339     0.007504
PD1148   PD        0.167466    0.433497    0.322324     0.005394
PD1149   PD        0.169904    0.466883    0.290280     0.005394
AU1150   AU        0.201184    0.435874    0.289093     0.007504
AU1151   AU        0.200429    0.468396    0.322168     0.007504
AU1152   AU        0.234369    0.434906    0.321140     0.007504
AU1153   AU        0.234222    0.467665    0.289654     0.007504
PD1154   PD        0.267225    0.438212    0.287943     0.005394
AU1155   AU        0.267259    0.469360    0.321266     0.007504
PD1156   PD        0.298174    0.435021    0.320653     0.005394
PD1157   PD        0.301550    0.469294    0.287370     0.005394
AU1158   AU        0.334213    0.436141    0.288891     0.007504
PD1159   PD        0.332251    0.468119    0.323288     0.005394
AU1160   AU        0.366819    0.434773    0.321841     0.007504
AU1161   AU        0.368340    0.467875    0.290015     0.007504
PD1162   PD        0.397985    0.433386    0.290771     0.005394
PD1163   PD        0.398219    0.467530    0.321072     0.005394
AU1164   AU        0.433338    0.433374    0.323402     0.007504
PD1165   PD        0.434615    0.465536    0.290979     0.005394
PD1166   PD        0.467798    0.434354    0.290426     0.005394
AU1167   AU        0.468018    0.468847    0.323645     0.007504
AU1168   AU        0.499039    0.435107    0.321539     0.007504
AU1169   AU        0.499899    0.467332    0.289311     0.007504
PD1170   PD        0.531743    0.437203    0.287858     0.005394
PD1171   PD        0.531716    0.469143    0.322539     0.005394
PD1172   PD        0.562876    0.438511    0.321287     0.005394
AU1173   AU        0.566288    0.469553    0.287595     0.007504
AU1174   AU        0.599739    0.433928    0.288263     0.007504
PD1175   PD        0.598415    0.466877    0.321196     0.005394
AU1176   AU        0.633740    0.433454    0.322980     0.007504
PD1177   PD        0.633580    0.468690    0.290225     0.005394
PD1178   PD        0.666011    0.436433    0.288649     0.005394
AU1179   AU        0.666261    0.468174    0.321468     0.007504
PD1180   PD        0.700794    0.433169    0.324574     0.005394
PD1181   PD        0.702630    0.468946    0.285045     0.005394
PD1182   PD        0.733449    0.432830    0.286633     0.005394
AU1183   AU        0.732492    0.468667    0.321217     0.007504
PD1184   PD        0.765949    0.433826    0.321482     0.005394
AU1185   AU        0.765730    0.465808    0.290208     0.007504
AU1186   AU        0.798554    0.434966    0.287807     0.007504
PD1187   PD        0.797604    0.466912    0.320860     0.005394
PD1188   PD        0.830296    0.433936    0.319739     0.005394
AU1189   AU        0.831937    0.470235    0.289304     0.007504
AU1190   AU        0.103736    0.499985    0.322430     0.007504
AU1191   AU        0.103771    0.533336    0.291175     0.007504
AU1192   AU        0.134804    0.500851    0.291620     0.007504
PD1193   PD        0.135675    0.537092    0.321921     0.005394
PD1194   PD        0.165489    0.500508    0.323386     0.005394
AU1195   AU        0.168145    0.531437    0.289190     0.007504
AU1196   AU        0.201852    0.499358    0.290712     0.007504
AU1197   AU        0.201849    0.534205    0.320644     0.007504
AU1198   AU        0.235256    0.500486    0.321598     0.007504
AU1199   AU        0.235450    0.533290    0.289391     0.007504
AU1200   AU        0.270653    0.502550    0.290344     0.007504
AU1201   AU        0.268275    0.534243    0.322902     0.007504
AU1202   AU        0.300304    0.500042    0.322552     0.007504
PD1203   PD        0.300034    0.535984    0.289473     0.005394
AU1204   AU        0.336085    0.500585    0.292248     0.007504
AU1205   AU        0.333314    0.534985    0.321808     0.007504
PD1206   PD        0.366453    0.502471    0.325070     0.005394
PD1207   PD        0.366246    0.535144    0.289604     0.005394
PD1208   PD        0.400244    0.499171    0.288554     0.005394
AU1209   AU        0.399738    0.535428    0.321277     0.007504
PD1210   PD        0.435425    0.501200    0.324267     0.005394
PD1211   PD        0.433919    0.533282    0.289586     0.005394
PD1212   PD        0.468320    0.500866    0.290688     0.005394
AU1213   AU        0.465514    0.534585    0.323746     0.007504
AU1214   AU        0.498612    0.501697    0.322552     0.007504
PD1215   PD        0.499468    0.536001    0.288277     0.005394
AU1216   AU        0.532486    0.501953    0.289032     0.007504
AU1217   AU        0.531740    0.536078    0.322323     0.007504
PD1218   PD        0.563420    0.501081    0.321898     0.005394
AU1219   AU        0.563996    0.535174    0.290467     0.007504
AU1220   AU        0.601076    0.502068    0.290066     0.007504
PD1221   PD        0.597675    0.534283    0.321770     0.005394
PD1222   PD        0.634142    0.499923    0.323186     0.005394
AU1223   AU        0.633189    0.531940    0.289804     0.007504
PD1224   PD        0.667974    0.500922    0.289702     0.005394
PD1225   PD        0.664405    0.532250    0.323021     0.005394
PD1226   PD        0.700603    0.501506    0.321886     0.005394
PD1227   PD        0.697798    0.533328    0.287636     0.005394
AU1228   AU        0.734528    0.500434    0.289508     0.007504
AU1229   AU        0.732706    0.535297    0.320760     0.007504
PD1230   PD        0.765330    0.501822    0.321667     0.005394
AU1231   AU        0.765447    0.534343    0.286312     0.007504
AU1232   AU        0.798176    0.500644    0.288172     0.007504
AU1233   AU        0.798871    0.533245    0.322403     0.007504
PD1234   PD        0.832495    0.502197    0.322783     0.005394
PD1235   PD        0.865604    0.527568    0.255022     0.005394
PD1236   PD        0.065868    0.563461    0.287012     0.005394
PD1237   PD        0.136361    0.566489    0.288320     0.005394
PD1238   PD        0.076813    0.626475    0.331042     0.005394
PD1239   PD        0.172110    0.566458    0.323899     0.005394
AU1240   AU        0.165314    0.599749    0.288600     0.007504
PD1241   PD        0.202205    0.566542    0.289855     0.005394
PD1242   PD        0.199852    0.602332    0.324022     0.005394
PD1243   PD        0.233556    0.566333    0.324562     0.005394
PD1244   PD        0.233464    0.598356    0.288037     0.005394
AU1245   AU        0.265727    0.567852    0.288796     0.007504
PD1246   PD        0.267692    0.597792    0.323720     0.005394
AU1247   AU        0.301324    0.567821    0.322202     0.007504
AU1248   AU        0.300249    0.599911    0.289408     0.007504
AU1249   AU        0.334241    0.567144    0.287526     0.007504
AU1250   AU        0.334175    0.599324    0.321287     0.007504
AU1251   AU        0.365974    0.566913    0.322218     0.007504
AU1252   AU        0.368863    0.598867    0.290612     0.007504
AU1253   AU        0.401723    0.567904    0.288456     0.007504
AU1254   AU        0.400963    0.600766    0.323721     0.007504
AU1255   AU        0.434771    0.567426    0.321441     0.007504
AU1256   AU        0.433555    0.602809    0.288640     0.007504
PD1257   PD        0.467684    0.569343    0.290298     0.005394
AU1258   AU        0.466584    0.601222    0.322289     0.007504
AU1259   AU        0.497698    0.568104    0.322938     0.007504
PD1260   PD        0.500882    0.602205    0.287951     0.005394
AU1261   AU        0.533376    0.569456    0.287889     0.007504
AU1262   AU        0.532235    0.600494    0.323969     0.007504
AU1263   AU        0.566700    0.569072    0.321755     0.007504
PD1264   PD        0.564999    0.601688    0.289549     0.005394
AU1265   AU        0.598491    0.566972    0.288416     0.007504
AU1266   AU        0.600878    0.598950    0.321155     0.007504
AU1267   AU        0.631821    0.566773    0.323342     0.007504
PD1268   PD        0.631396    0.599733    0.288226     0.005394
AU1269   AU        0.663795    0.565873    0.291337     0.007504
PD1270   PD        0.664362    0.600496    0.319442     0.005394
PD1271   PD        0.696866    0.566913    0.320886     0.005394
AU1272   AU        0.697947    0.598932    0.289062     0.007504
AU1273   AU        0.732388    0.566853    0.286636     0.007504
AU1274   AU        0.732935    0.600319    0.321464     0.007504
AU1275   AU        0.765001    0.567971    0.321123     0.007504
AU1276   AU        0.763824    0.600177    0.287984     0.007504
AU1277   AU        0.798517    0.569018    0.286890     0.007504
AU1278   AU        0.798064    0.601864    0.319609     0.007504
AU1279   AU        0.831834    0.566022    0.322047     0.007504
PD1280   PD        0.166180    0.634725    0.321076     0.005394
AU1281   AU        0.163830    0.665826    0.287085     0.007504
PD1282   PD        0.200052    0.631436    0.288688     0.005394
AU1283   AU        0.200444    0.663975    0.319845     0.007504
PD1284   PD        0.237272    0.629441    0.321291     0.005394
AU1285   AU        0.234267    0.664180    0.288406     0.007504
AU1286   AU        0.269046    0.633140    0.289722     0.007504
PD1287   PD        0.265914    0.667123    0.322186     0.005394
AU1288   AU        0.300482    0.632685    0.321269     0.007504
AU1289   AU        0.301098    0.666667    0.290482     0.007504
AU1290   AU        0.333780    0.634089    0.289188     0.007504
AU1291   AU        0.334567    0.666506    0.320070     0.007504
PD1292   PD        0.367768    0.634529    0.323283     0.005394
AU1293   AU        0.367012    0.667163    0.288771     0.007504
AU1294   AU        0.400433    0.633270    0.288875     0.007504
PD1295   PD        0.401291    0.666956    0.321341     0.005394
AU1296   AU        0.432927    0.633676    0.323025     0.007504
AU1297   AU        0.434777    0.666478    0.287683     0.007504
AU1298   AU        0.468165    0.634585    0.288977     0.007504
AU1299   AU        0.467203    0.666255    0.321991     0.007504
AU1300   AU        0.500439    0.632243    0.323111     0.007504
PD1301   PD        0.499810    0.667326    0.287551     0.005394
PD1302   PD        0.534721    0.632676    0.290907     0.005394
AU1303   AU        0.534657    0.667106    0.323112     0.007504
PD1304   PD        0.565869    0.634998    0.320485     0.005394
PD1305   PD        0.564554    0.665886    0.288498     0.005394
PD1306   PD        0.597164    0.633978    0.290705     0.005394
PD1307   PD        0.600240    0.669951    0.321766     0.005394
PD1308   PD        0.630446    0.634237    0.322027     0.005394
AU1309   AU        0.632693    0.666593    0.288849     0.007504
AU1310   AU        0.665386    0.633852    0.289786     0.007504
AU1311   AU        0.666703    0.668044    0.321028     0.007504
PD1312   PD        0.699974    0.632571    0.322744     0.005394
PD1313   PD        0.698826    0.665225    0.287094     0.005394
AU1314   AU        0.731509    0.633812    0.285370     0.007504
AU1315   AU        0.731663    0.665912    0.322159     0.007504
AU1316   AU        0.764398    0.634331    0.319783     0.007504
AU1317   AU        0.764251    0.667759    0.289321     0.007504
PD1318   PD        0.197152    0.697566    0.286628     0.005394
PD1319   PD        0.233238    0.697624    0.320076     0.005394
PD1320   PD        0.247357    0.754369    0.279746     0.005394
PD1321   PD        0.265288    0.699980    0.289382     0.005394
PD1322   PD        0.269734    0.733320    0.319681     0.005394
PD1323   PD        0.301463    0.701362    0.322564     0.005394
PD1324   PD        0.304342    0.733309    0.286171     0.005394
AU1325   AU        0.336019    0.700650    0.287925     0.007504
AU1326   AU        0.334462    0.732095    0.322836     0.007504
AU1327   AU        0.368268    0.698774    0.320473     0.007504
AU1328   AU        0.368297    0.733653    0.288908     0.007504
AU1329   AU        0.401090    0.700554    0.288935     0.007504
AU1330   AU        0.402883    0.734077    0.321989     0.007504
AU1331   AU        0.434219    0.700132    0.321346     0.007504
PD1332   PD        0.434471    0.734244    0.288210     0.005394
PD1333   PD        0.467064    0.699967    0.290007     0.005394
AU1334   AU        0.464930    0.733088    0.322395     0.007504
AU1335   AU        0.500817    0.699749    0.321555     0.007504
AU1336   AU        0.500310    0.731192    0.288238     0.007504
AU1337   AU        0.534485    0.701955    0.291276     0.007504
PD1338   PD        0.532290    0.732618    0.322322     0.005394
AU1339   AU        0.567667    0.700077    0.321819     0.007504
AU1340   AU        0.563827    0.734489    0.287913     0.007504
PD1341   PD        0.597615    0.699183    0.286097     0.005394
AU1342   AU        0.599959    0.733620    0.320931     0.007504
AU1343   AU        0.633527    0.700656    0.323399     0.007504
PD1344   PD        0.634069    0.731827    0.286877     0.005394
AU1345   AU        0.664752    0.700273    0.290941     0.007504
AU1346   AU        0.666690    0.734252    0.322324     0.007504
AU1347   AU        0.700585    0.700079    0.320604     0.007504
PD1348   PD        0.696549    0.734410    0.283234     0.005394
PD1349   PD        0.798841    0.739013    0.325471     0.005394
PD1350   PD        0.286863    0.769154    0.324049     0.005394
AU1351   AU        0.336798    0.764934    0.290586     0.007504
PD1352   PD        0.331617    0.794610    0.322024     0.005394
AU1353   AU        0.368379    0.766343    0.321381     0.007504
AU1354   AU        0.367650    0.797717    0.289806     0.007504
AU1355   AU        0.402124    0.765794    0.286310     0.007504
PD1356   PD        0.394183    0.833146    0.289522     0.005394
PD1357   PD        0.436729    0.768044    0.318880     0.005394
PD1358   PD        0.435773    0.801469    0.284199     0.005394
PD1359   PD        0.469390    0.766213    0.287187     0.005394
AU1360   AU        0.468733    0.797560    0.322795     0.007504
AU1361   AU        0.499491    0.765210    0.321114     0.007504
AU1362   AU        0.500988    0.799598    0.287001     0.007504
PD1363   PD        0.531041    0.765801    0.288453     0.005394
AU1364   AU        0.533293    0.798115    0.323197     0.007504
AU1365   AU        0.564884    0.764689    0.321012     0.007504
AU1366   AU        0.564541    0.798187    0.288258     0.007504
AU1367   AU        0.599161    0.766638    0.288711     0.007504
AU1368   AU        0.597126    0.797937    0.323084     0.007504
AU1369   AU        0.632692    0.765296    0.319552     0.007504
PD1370   PD        0.300262    0.068626    0.358261     0.005394
PD1371   PD        0.331915    0.070156    0.393605     0.005394
PD1372   PD        0.365692    0.068375    0.359616     0.005394
AU1373   AU        0.399004    0.070975    0.390677     0.007504
PD1374   PD        0.433610    0.040243    0.390296     0.005394
PD1375   PD        0.428931    0.071141    0.355103     0.005394
PD1376   PD        0.459743    0.028268    0.299028     0.005394
PD1377   PD        0.472291    0.059537    0.369394     0.005394
PD1378   PD        0.500069    0.040527    0.393128     0.005394
AU1379   AU        0.501027    0.035642    0.325662     0.007504
PD1380   PD        0.535089    0.073547    0.391274     0.005394
PD1381   PD        0.569622    0.068174    0.355714     0.005394
PD1382   PD        0.605916    0.069665    0.391657     0.005394
PD1383   PD        0.634820    0.067533    0.357515     0.005394
PD1384   PD        0.200632    0.137701    0.389638     0.005394
PD1385   PD        0.231813    0.103391    0.391198     0.005394
AU1386   AU        0.233020    0.133767    0.356847     0.007504
AU1387   AU        0.265994    0.102160    0.356840     0.007504
AU1388   AU        0.267258    0.135717    0.389016     0.007504
AU1389   AU        0.299551    0.102892    0.390573     0.007504
AU1390   AU        0.298988    0.135860    0.357374     0.007504
AU1391   AU        0.333584    0.102799    0.357580     0.007504
PD1392   PD        0.332689    0.133123    0.390466     0.005394
AU1393   AU        0.366055    0.104026    0.391061     0.007504
AU1394   AU        0.364769    0.136633    0.357501     0.007504
PD1395   PD        0.400373    0.105253    0.358318     0.005394
AU1396   AU        0.399702    0.136854    0.390144     0.007504
PD1397   PD        0.432421    0.101372    0.393426     0.005394
PD1398   PD        0.434193    0.138579    0.357471     0.005394
AU1399   AU        0.465105    0.104225    0.356435     0.007504
PD1400   PD        0.466854    0.136329    0.388466     0.005394
PD1401   PD        0.500740    0.104106    0.389873     0.005394
PD1402   PD        0.500670    0.134484    0.359141     0.005394
AU1403   AU        0.534168    0.101337    0.355840     0.007504
PD1404   PD        0.536942    0.137844    0.390420     0.005394
AU1405   AU        0.569111    0.101257    0.391393     0.007504
PD1406   PD        0.566892    0.134275    0.358219     0.005394
PD1407   PD        0.597843    0.101384    0.359423     0.005394
PD1408   PD        0.600218    0.137456    0.390703     0.005394
PD1409   PD        0.634400    0.105744    0.389626     0.005394
PD1410   PD        0.631101    0.135520    0.356303     0.005394
PD1411   PD        0.665042    0.104377    0.354137     0.005394
AU1412   AU        0.664137    0.137994    0.389604     0.007504
PD1413   PD        0.695724    0.100917    0.390348     0.005394
AU1414   AU        0.700018    0.136285    0.354974     0.007504
PD1415   PD        0.731787    0.135564    0.389178     0.005394
PD1416   PD        0.135116    0.202036    0.393567     0.005394
AU1417   AU        0.165983    0.169595    0.390713     0.007504
AU1418   AU        0.169200    0.204394    0.357504     0.007504
PD1419   PD        0.202391    0.168223    0.354236     0.005394
PD1420   PD        0.198402    0.201692    0.391791     0.005394
AU1421   AU        0.233383    0.170471    0.390720     0.007504
AU1422   AU        0.233424    0.201909    0.356875     0.007504
AU1423   AU        0.266053    0.167445    0.357792     0.007504
AU1424   AU        0.266597    0.201382    0.391603     0.007504
PD1425   PD        0.299316    0.166769    0.391452     0.005394
PD1426   PD        0.298701    0.198649    0.359030     0.005394
PD1427   PD        0.330215    0.168781    0.358215     0.005394
AU1428   AU        0.332213    0.200581    0.389516     0.007504
PD1429   PD        0.367856    0.168231    0.390376     0.005394
AU1430   AU        0.366776    0.203538    0.356092     0.007504
PD1431   PD        0.398235    0.167645    0.356839     0.005394
PD1432   PD        0.401120    0.200837    0.390149     0.005394
AU1433   AU        0.433190    0.166720    0.387768     0.007504
PD1434   PD        0.431246    0.202182    0.355101     0.005394
PD1435   PD        0.466519    0.171025    0.354883     0.005394
AU1436   AU        0.463095    0.202023    0.390262     0.007504
PD1437   PD        0.500652    0.170140    0.389195     0.005394
AU1438   AU        0.498997    0.203095    0.356546     0.007504
PD1439   PD        0.532066    0.170579    0.356117     0.005394
PD1440   PD        0.536800    0.203042    0.387983     0.005394
PD1441   PD        0.567842    0.168783    0.388787     0.005394
PD1442   PD        0.567089    0.204646    0.357411     0.005394
PD1443   PD        0.598379    0.171440    0.355313     0.005394
AU1444   AU        0.598609    0.201089    0.388877     0.007504
AU1445   AU        0.630827    0.170010    0.389508     0.007504
PD1446   PD        0.632134    0.203052    0.354156     0.005394
PD1447   PD        0.668935    0.172854    0.355640     0.005394
PD1448   PD        0.667467    0.200429    0.392627     0.005394
AU1449   AU        0.698721    0.169009    0.388559     0.007504
PD1450   PD        0.701448    0.201806    0.357458     0.005394
AU1451   AU        0.732708    0.170023    0.356554     0.007504
PD1452   PD        0.733470    0.202839    0.389764     0.005394
PD1453   PD        0.767249    0.167602    0.390035     0.005394
AU1454   AU        0.766937    0.200773    0.355947     0.007504
AU1455   AU        0.798249    0.200862    0.391394     0.007504
PD1456   PD        0.100277    0.265791    0.357566     0.005394
PD1457   PD        0.135024    0.234869    0.357547     0.005394
PD1458   PD        0.135981    0.270708    0.387954     0.005394
PD1459   PD        0.165619    0.236349    0.390435     0.005394
PD1460   PD        0.168769    0.269017    0.357635     0.005394
PD1461   PD        0.202490    0.236957    0.357851     0.005394
PD1462   PD        0.201193    0.271602    0.392030     0.005394
AU1463   AU        0.234194    0.235802    0.391014     0.007504
PD1464   PD        0.235259    0.269903    0.355231     0.005394
PD1465   PD        0.266676    0.236140    0.355281     0.005394
PD1466   PD        0.266608    0.270578    0.389094     0.005394
AU1467   AU        0.298510    0.234947    0.388628     0.007504
AU1468   AU        0.299111    0.269785    0.356710     0.007504
PD1469   PD        0.334240    0.236830    0.356361     0.005394
PD1470   PD        0.331646    0.267058    0.389182     0.005394
PD1471   PD        0.367510    0.234134    0.389999     0.005394
PD1472   PD        0.363837    0.268456    0.356520     0.005394
PD1473   PD        0.398326    0.237226    0.354612     0.005394
PD1474   PD        0.397061    0.268799    0.390549     0.005394
PD1475   PD        0.432005    0.236161    0.388365     0.005394
PD1476   PD        0.432552    0.270359    0.357010     0.005394
AU1477   AU        0.468537    0.235354    0.356002     0.007504
PD1478   PD        0.466745    0.267952    0.390122     0.005394
AU1479   AU        0.499969    0.236689    0.390712     0.007504
AU1480   AU        0.498339    0.268764    0.354883     0.007504
PD1481   PD        0.534362    0.237166    0.353431     0.005394
PD1482   PD        0.533417    0.268816    0.390252     0.005394
PD1483   PD        0.568081    0.236711    0.390529     0.005394
AU1484   AU        0.567966    0.269721    0.357691     0.007504
AU1485   AU        0.600127    0.236599    0.356253     0.007504
PD1486   PD        0.599614    0.269413    0.391672     0.005394
AU1487   AU        0.631623    0.235685    0.389813     0.007504
PD1488   PD        0.634822    0.269987    0.354963     0.005394
PD1489   PD        0.663828    0.236363    0.356027     0.005394
PD1490   PD        0.665155    0.268965    0.389815     0.005394
PD1491   PD        0.699040    0.233548    0.390887     0.005394
PD1492   PD        0.702080    0.265328    0.358338     0.005394
AU1493   AU        0.733399    0.234763    0.354692     0.007504
PD1494   PD        0.730394    0.267656    0.389242     0.005394
AU1495   AU        0.766043    0.234655    0.389585     0.007504
PD1496   PD        0.765534    0.270055    0.355256     0.005394
PD1497   PD        0.798886    0.235938    0.358063     0.005394
AU1498   AU        0.799447    0.268856    0.388427     0.007504
PD1499   PD        0.831980    0.269056    0.356645     0.005394
PD1500   PD        0.072063    0.331837    0.388926     0.005394
PD1501   PD        0.103654    0.334077    0.355509     0.005394
PD1502   PD        0.137051    0.301492    0.359510     0.005394
AU1503   AU        0.135158    0.334916    0.390366     0.007504
PD1504   PD        0.166113    0.301734    0.392282     0.005394
PD1505   PD        0.167096    0.336381    0.353647     0.005394
AU1506   AU        0.198500    0.303598    0.356464     0.007504
PD1507   PD        0.199586    0.335984    0.387650     0.005394
AU1508   AU        0.233942    0.301939    0.388974     0.007504
PD1509   PD        0.233535    0.334379    0.356173     0.005394
AU1510   AU        0.265109    0.302680    0.357476     0.007504
AU1511   AU        0.268690    0.336585    0.388940     0.007504
AU1512   AU        0.299783    0.301415    0.390131     0.007504
AU1513   AU        0.301799    0.335113    0.357948     0.007504
PD1514   PD        0.334362    0.303371    0.357866     0.005394
PD1515   PD        0.333082    0.336110    0.388819     0.005394
AU1516   AU        0.364786    0.302237    0.391599     0.007504
AU1517   AU        0.365234    0.335151    0.356028     0.007504
PD1518   PD        0.397964    0.302594    0.356421     0.005394
AU1519   AU        0.399626    0.336777    0.387939     0.007504
PD1520   PD        0.434925    0.302104    0.389222     0.005394
AU1521   AU        0.433496    0.334215    0.355936     0.007504
AU1522   AU        0.464718    0.301752    0.356946     0.007504
PD1523   PD        0.465970    0.334586    0.391200     0.005394
AU1524   AU        0.497363    0.300889    0.389135     0.007504
PD1525   PD        0.500096    0.335362    0.359308     0.005394
PD1526   PD        0.532394    0.302487    0.354936     0.005394
AU1527   AU        0.532468    0.336212    0.389365     0.007504
AU1528   AU        0.564547    0.302751    0.390265     0.007504
AU1529   AU        0.567423    0.336151    0.356824     0.007504
PD1530   PD        0.601258    0.303549    0.357193     0.005394
PD1531   PD        0.598157    0.331555    0.389509     0.005394
PD1532   PD        0.632122    0.299611    0.389510     0.005394
AU1533   AU        0.632426    0.336235    0.354912     0.007504
PD1534   PD        0.667197    0.301427    0.355368     0.005394
PD1535   PD        0.665384    0.336336    0.387210     0.005394
PD1536   PD        0.699407    0.304135    0.388917     0.005394
AU1537   AU        0.697837    0.334911    0.356567     0.007504
PD1538   PD        0.731517    0.299495    0.355845     0.005394
PD1539   PD        0.732372    0.334396    0.387832     0.005394
AU1540   AU        0.767231    0.302641    0.387754     0.007504
AU1541   AU        0.767652    0.335732    0.358499     0.007504
PD1542   PD        0.801347    0.303942    0.355272     0.005394
PD1543   PD        0.800004    0.334577    0.388702     0.005394
PD1544   PD        0.831348    0.304514    0.388573     0.005394
PD1545   PD        0.832775    0.336376    0.353554     0.005394
PD1546   PD        0.067374    0.402044    0.391074     0.005394
AU1547   AU        0.101297    0.366914    0.386209     0.007504
AU1548   AU        0.103672    0.399775    0.354804     0.007504
PD1549   PD        0.135343    0.368423    0.354323     0.005394
AU1550   AU        0.135083    0.401054    0.388427     0.007504
PD1551   PD        0.169941    0.366659    0.390662     0.005394
PD1552   PD        0.166280    0.400395    0.356320     0.005394
AU1553   AU        0.202865    0.366523    0.354579     0.007504
PD1554   PD        0.201521    0.399710    0.388911     0.005394
AU1555   AU        0.232207    0.370050    0.389404     0.007504
AU1556   AU        0.234849    0.402668    0.356248     0.007504
PD1557   PD        0.266313    0.369928    0.356730     0.005394
AU1558   AU        0.267325    0.401575    0.391197     0.007504
PD1559   PD        0.301555    0.368739    0.390821     0.005394
AU1560   AU        0.300257    0.401097    0.354390     0.007504
AU1561   AU        0.333450    0.368083    0.356094     0.007504
AU1562   AU        0.334303    0.402507    0.389444     0.007504
AU1563   AU        0.365421    0.368235    0.388260     0.007504
AU1564   AU        0.368237    0.403345    0.356900     0.007504
PD1565   PD        0.400879    0.371431    0.358972     0.005394
PD1566   PD        0.399431    0.401475    0.392903     0.005394
AU1567   AU        0.436053    0.366616    0.391815     0.007504
PD1568   PD        0.431423    0.402795    0.356720     0.005394
PD1569   PD        0.467304    0.368344    0.356491     0.005394
PD1570   PD        0.466837    0.401987    0.387682     0.005394
AU1571   AU        0.497912    0.369306    0.390758     0.007504
PD1572   PD        0.501268    0.402653    0.355127     0.005394
AU1573   AU        0.533059    0.368076    0.357233     0.007504
AU1574   AU        0.531067    0.404446    0.390742     0.007504
PD1575   PD        0.563489    0.371935    0.389931     0.005394
PD1576   PD        0.566296    0.403501    0.354547     0.005394
PD1577   PD        0.598598    0.372177    0.356903     0.005394
PD1578   PD        0.598235    0.400391    0.388431     0.005394
PD1579   PD        0.633090    0.368947    0.387977     0.005394
AU1580   AU        0.633287    0.402148    0.354056     0.007504
PD1581   PD        0.667792    0.369062    0.354900     0.005394
PD1582   PD        0.666441    0.403296    0.389176     0.005394
AU1583   AU        0.700741    0.370780    0.388635     0.007504
PD1584   PD        0.701976    0.401895    0.357601     0.005394
AU1585   AU        0.734098    0.367564    0.354046     0.007504
AU1586   AU        0.735711    0.403551    0.390250     0.007504
PD1587   PD        0.765497    0.370964    0.388575     0.005394
AU1588   AU        0.766472    0.402623    0.355905     0.007504
AU1589   AU        0.797378    0.371014    0.355441     0.007504
AU1590   AU        0.800026    0.404332    0.387201     0.007504
PD1591   PD        0.833824    0.365854    0.388492     0.005394
AU1592   AU        0.832850    0.402604    0.354518     0.007504
AU1593   AU        0.865176    0.402290    0.385980     0.007504
PD1594   PD        0.069258    0.434269    0.357174     0.005394
AU1595   AU        0.067077    0.470269    0.386891     0.007504
AU1596   AU        0.100518    0.434439    0.388628     0.007504
AU1597   AU        0.103246    0.466528    0.355239     0.007504
AU1598   AU        0.135410    0.435312    0.356255     0.007504
AU1599   AU        0.135781    0.467899    0.387562     0.007504
PD1600   PD        0.167898    0.433466    0.387700     0.005394
PD1601   PD        0.167924    0.468316    0.353824     0.005394
AU1602   AU        0.199168    0.433433    0.354888     0.007504
AU1603   AU        0.202380    0.466968    0.387613     0.007504
AU1604   AU        0.233847    0.433621    0.386996     0.007504
AU1605   AU        0.234381    0.467010    0.354747     0.007504
AU1606   AU        0.269279    0.437007    0.355167     0.007504
PD1607   PD        0.265728    0.467207    0.390117     0.005394
AU1608   AU        0.301626    0.435609    0.388275     0.007504
AU1609   AU        0.300177    0.470034    0.357664     0.007504
PD1610   PD        0.332725    0.436463    0.356224     0.005394
PD1611   PD        0.334198    0.471067    0.391682     0.005394
AU1612   AU        0.367047    0.434774    0.388162     0.007504
AU1613   AU        0.364410    0.468242    0.357314     0.007504
PD1614   PD        0.400029    0.435763    0.355214     0.005394
PD1615   PD        0.399396    0.469478    0.387950     0.005394
AU1616   AU        0.432802    0.437138    0.388520     0.007504
AU1617   AU        0.433796    0.467754    0.354931     0.007504
PD1618   PD        0.468495    0.433384    0.356014     0.005394
AU1619   AU        0.465920    0.468824    0.388883     0.007504
AU1620   AU        0.499377    0.436192    0.389303     0.007504
AU1621   AU        0.499996    0.469430    0.358426     0.007504
PD1622   PD        0.532692    0.433573    0.354148     0.005394
AU1623   AU        0.533116    0.467940    0.391617     0.007504
AU1624   AU        0.567293    0.435046    0.389866     0.007504
PD1625   PD        0.563241    0.468032    0.357979     0.005394
AU1626   AU        0.598313    0.434423    0.353358     0.007504
AU1627   AU        0.600902    0.469518    0.389558     0.007504
PD1628   PD        0.630250    0.434453    0.388214     0.005394
PD1629   PD        0.630823    0.465960    0.355987     0.005394
AU1630   AU        0.666272    0.434770    0.355539     0.007504
AU1631   AU        0.665321    0.468800    0.388515     0.007504
AU1632   AU        0.700200    0.435978    0.386233     0.007504
PD1633   PD        0.698853    0.468482    0.354766     0.005394
AU1634   AU        0.733164    0.434635    0.354154     0.007504
AU1635   AU        0.730903    0.468859    0.388692     0.007504
AU1636   AU        0.767334    0.437942    0.387833     0.007504
AU1637   AU        0.764364    0.467445    0.352781     0.007504
AU1638   AU        0.800099    0.435686    0.354477     0.007504
AU1639   AU        0.799043    0.468914    0.386898     0.007504
AU1640   AU        0.832745    0.434343    0.389024     0.007504
AU1641   AU        0.831809    0.467913    0.353315     0.007504
PD1642   PD        0.865915    0.437336    0.356081     0.005394
AU1643   AU        0.865049    0.471128    0.386477     0.007504
AU1644   AU        0.103894    0.500864    0.387957     0.007504
AU1645   AU        0.101333    0.533354    0.356419     0.007504
AU1646   AU        0.135431    0.503046    0.354683     0.007504
PD1647   PD        0.133098    0.534986    0.388734     0.005394
PD1648   PD        0.168663    0.501691    0.388517     0.005394
PD1649   PD        0.169523    0.533611    0.352940     0.005394
PD1650   PD        0.203147    0.502415    0.357803     0.005394
AU1651   AU        0.201789    0.535162    0.389415     0.007504
PD1652   PD        0.234067    0.502047    0.388576     0.005394
AU1653   AU        0.235185    0.533929    0.354764     0.007504
AU1654   AU        0.268422    0.500640    0.356299     0.007504
AU1655   AU        0.267645    0.536985    0.390310     0.007504
AU1656   AU        0.299757    0.503746    0.389981     0.007504
AU1657   AU        0.301413    0.535457    0.353814     0.007504
AU1658   AU        0.332954    0.501209    0.355765     0.007504
PD1659   PD        0.333610    0.537905    0.389869     0.005394
PD1660   PD        0.365127    0.502198    0.389441     0.005394
AU1661   AU        0.365121    0.534182    0.355154     0.007504
AU1662   AU        0.399227    0.501552    0.356396     0.007504
AU1663   AU        0.399330    0.535724    0.388939     0.007504
AU1664   AU        0.432631    0.500890    0.386381     0.007504
AU1665   AU        0.433361    0.532449    0.353991     0.007504
AU1666   AU        0.469146    0.501791    0.356541     0.007504
AU1667   AU        0.465660    0.533513    0.390384     0.007504
AU1668   AU        0.499671    0.503711    0.388132     0.007504
AU1669   AU        0.499203    0.535210    0.356665     0.007504
AU1670   AU        0.531373    0.500753    0.357876     0.007504
AU1671   AU        0.531948    0.535892    0.389328     0.007504
AU1672   AU        0.566227    0.500435    0.390664     0.007504
AU1673   AU        0.565410    0.534851    0.353343     0.007504
PD1674   PD        0.598989    0.499796    0.355545     0.005394
PD1675   PD        0.599619    0.533392    0.388783     0.005394
PD1676   PD        0.632757    0.503487    0.389008     0.005394
AU1677   AU        0.632363    0.533413    0.355505     0.007504
PD1678   PD        0.666719    0.501339    0.353605     0.005394
AU1679   AU        0.665194    0.533605    0.388671     0.007504
AU1680   AU        0.699514    0.500724    0.387282     0.007504
AU1681   AU        0.699953    0.533160    0.354598     0.007504
AU1682   AU        0.733230    0.502898    0.354112     0.007504
PD1683   PD        0.732504    0.534974    0.389889     0.005394
AU1684   AU        0.764898    0.501195    0.385574     0.007504
AU1685   AU        0.763987    0.536064    0.355235     0.007504
PD1686   PD        0.797473    0.499784    0.352317     0.005394
AU1687   AU        0.797922    0.534666    0.389844     0.007504
AU1688   AU        0.829899    0.502354    0.386755     0.007504
PD1689   PD        0.831349    0.534133    0.354676     0.005394
AU1690   AU        0.103157    0.566834    0.391165     0.007504
AU1691   AU        0.100565    0.596357    0.354397     0.007504
AU1692   AU        0.137625    0.564726    0.356653     0.007504
AU1693   AU        0.132529    0.599508    0.389375     0.007504
PD1694   PD        0.168426    0.566265    0.390075     0.005394
AU1695   AU        0.167384    0.602105    0.357494     0.007504
AU1696   AU        0.199905    0.567799    0.357699     0.007504
AU1697   AU        0.201875    0.600889    0.389176     0.007504
PD1698   PD        0.234648    0.567295    0.387850     0.005394
AU1699   AU        0.234072    0.601517    0.356381     0.007504
PD1700   PD        0.269747    0.566500    0.354834     0.005394
AU1701   AU        0.268899    0.598314    0.388068     0.007504
PD1702   PD        0.302466    0.566725    0.390346     0.005394
AU1703   AU        0.301432    0.600849    0.355584     0.007504
PD1704   PD        0.335116    0.568159    0.354008     0.005394
AU1705   AU        0.335021    0.600104    0.389856     0.007504
AU1706   AU        0.367931    0.567317    0.387908     0.007504
PD1707   PD        0.366686    0.600617    0.356126     0.005394
AU1708   AU        0.401054    0.567205    0.354555     0.007504
AU1709   AU        0.400126    0.599900    0.387225     0.007504
AU1710   AU        0.435298    0.567861    0.389402     0.007504
PD1711   PD        0.432228    0.599684    0.356816     0.005394
AU1712   AU        0.465494    0.567954    0.355084     0.007504
AU1713   AU        0.466518    0.601519    0.387499     0.007504
AU1714   AU        0.497928    0.566042    0.388997     0.007504
AU1715   AU        0.500078    0.597999    0.356805     0.007504
AU1716   AU        0.532821    0.567166    0.355739     0.007504
AU1717   AU        0.533482    0.599549    0.390326     0.007504
AU1718   AU        0.567238    0.567691    0.389051     0.007504
AU1719   AU        0.566638    0.599347    0.355434     0.007504
PD1720   PD        0.601074    0.567518    0.357534     0.005394
PD1721   PD        0.601661    0.600874    0.387036     0.005394
AU1722   AU        0.632938    0.567673    0.389459     0.007504
AU1723   AU        0.633653    0.601344    0.354802     0.007504
AU1724   AU        0.666449    0.565778    0.354641     0.007504
PD1725   PD        0.667142    0.598300    0.386114     0.005394
AU1726   AU        0.700108    0.566490    0.386109     0.007504
AU1727   AU        0.699318    0.600184    0.352991     0.007504
PD1728   PD        0.732537    0.567220    0.355924     0.005394
AU1729   AU        0.732566    0.602313    0.388778     0.007504
AU1730   AU        0.767008    0.569351    0.389136     0.007504
AU1731   AU        0.765660    0.600822    0.356811     0.007504
AU1732   AU        0.797707    0.567950    0.353944     0.007504
PD1733   PD        0.831160    0.600747    0.419574     0.005394
PD1734   PD        0.868168    0.569985    0.423647     0.005394
PD1735   PD        0.897313    0.567603    0.318064     0.005394
AU1736   AU        0.132834    0.632194    0.355645     0.007504
PD1737   PD        0.137590    0.661252    0.390445     0.005394
PD1738   PD        0.168574    0.634444    0.391066     0.005394
PD1739   PD        0.164235    0.666701    0.354021     0.005394
PD1740   PD        0.201559    0.633724    0.354777     0.005394
PD1741   PD        0.200505    0.667084    0.393037     0.005394
PD1742   PD        0.234600    0.632107    0.389432     0.005394
AU1743   AU        0.232947    0.666659    0.357770     0.007504
AU1744   AU        0.268421    0.632333    0.357128     0.007504
PD1745   PD        0.267030    0.665137    0.389448     0.005394
AU1746   AU        0.303214    0.633706    0.388322     0.007504
PD1747   PD        0.301904    0.666795    0.353661     0.005394
PD1748   PD        0.332680    0.635314    0.356030     0.005394
PD1749   PD        0.336154    0.664990    0.387771     0.005394
AU1750   AU        0.367745    0.633227    0.387745     0.007504
AU1751   AU        0.369026    0.667326    0.354794     0.007504
AU1752   AU        0.401994    0.633761    0.354525     0.007504
PD1753   PD        0.400519    0.665639    0.389382     0.005394
PD1754   PD        0.433015    0.632226    0.390210     0.005394
AU1755   AU        0.434724    0.667197    0.357144     0.007504
AU1756   AU        0.467620    0.632319    0.352335     0.007504
PD1757   PD        0.466069    0.669514    0.388671     0.005394
AU1758   AU        0.499770    0.633746    0.388376     0.007504
AU1759   AU        0.498700    0.667154    0.356119     0.007504
AU1760   AU        0.532001    0.634196    0.356519     0.007504
AU1761   AU        0.533770    0.666924    0.388178     0.007504
AU1762   AU        0.566283    0.632703    0.387838     0.007504
AU1763   AU        0.567352    0.667469    0.356338     0.007504
AU1764   AU        0.599820    0.632768    0.353180     0.007504
AU1765   AU        0.600232    0.667419    0.388296     0.007504
AU1766   AU        0.630672    0.635933    0.386805     0.007504
AU1767   AU        0.635144    0.667066    0.355274     0.007504
AU1768   AU        0.666422    0.631927    0.354255     0.007504
AU1769   AU        0.666162    0.666789    0.387026     0.007504
AU1770   AU        0.698602    0.632783    0.385915     0.007504
AU1771   AU        0.698121    0.667724    0.353557     0.007504
AU1772   AU        0.732797    0.631957    0.353226     0.007504
AU1773   AU        0.730684    0.666464    0.387574     0.007504
PD1774   PD        0.762732    0.635149    0.387798     0.005394
PD1775   PD        0.766020    0.666341    0.355922     0.005394
PD1776   PD        0.797049    0.632815    0.355998     0.005394
PD1777   PD        0.799290    0.668422    0.389698     0.005394
PD1778   PD        0.164616    0.698289    0.390440     0.005394
AU1779   AU        0.199434    0.695850    0.355774     0.007504
AU1780   AU        0.199924    0.729382    0.389715     0.007504
AU1781   AU        0.232795    0.697210    0.388960     0.007504
PD1782   PD        0.232487    0.731033    0.351570     0.005394
PD1783   PD        0.267285    0.700066    0.352426     0.005394
PD1784   PD        0.268995    0.728659    0.387242     0.005394
PD1785   PD        0.300976    0.699843    0.386621     0.005394
AU1786   AU        0.300479    0.733387    0.354106     0.007504
PD1787   PD        0.337279    0.699295    0.353733     0.005394
PD1788   PD        0.334432    0.729844    0.387597     0.005394
AU1789   AU        0.368563    0.699937    0.388270     0.007504
AU1790   AU        0.369418    0.730864    0.354302     0.007504
PD1791   PD        0.400314    0.698405    0.355724     0.005394
PD1792   PD        0.401031    0.732421    0.388381     0.005394
AU1793   AU        0.432890    0.700561    0.389345     0.007504
PD1794   PD        0.434586    0.733698    0.357127     0.005394
AU1795   AU        0.464125    0.700832    0.355406     0.007504
PD1796   PD        0.466945    0.732554    0.388030     0.005394
PD1797   PD        0.500929    0.700946    0.386504     0.005394
AU1798   AU        0.498011    0.732850    0.354022     0.007504
AU1799   AU        0.534097    0.699460    0.354123     0.007504
PD1800   PD        0.534479    0.733697    0.386790     0.005394
AU1801   AU        0.566754    0.701178    0.387993     0.007504
PD1802   PD        0.567522    0.735275    0.354506     0.005394
PD1803   PD        0.601449    0.699479    0.356649     0.005394
PD1804   PD        0.601386    0.731616    0.389553     0.005394
AU1805   AU        0.634003    0.699691    0.388229     0.007504
AU1806   AU        0.632031    0.734399    0.355610     0.007504
AU1807   AU        0.665724    0.701310    0.353009     0.007504
AU1808   AU        0.665145    0.733282    0.386562     0.007504
AU1809   AU        0.698292    0.699211    0.384511     0.007504
AU1810   AU        0.701601    0.732381    0.354206     0.007504
PD1811   PD        0.732948    0.699980    0.352104     0.005394
PD1812   PD        0.733651    0.733212    0.391997     0.005394
PD1813   PD        0.765615    0.697708    0.389357     0.005394
PD1814   PD        0.238500    0.775036    0.366559     0.005394
PD1815   PD        0.271392    0.837303    0.352847     0.005394
PD1816   PD        0.300902    0.763738    0.389733     0.005394
PD1817   PD        0.278093    0.869493    0.317804     0.005394
PD1818   PD        0.334760    0.765222    0.355069     0.005394
AU1819   AU        0.334898    0.796942    0.386593     0.007504
AU1820   AU        0.368303    0.765706    0.385434     0.007504
PD1821   PD        0.369424    0.799827    0.354674     0.005394
AU1822   AU        0.401731    0.766048    0.355429     0.007504
PD1823   PD        0.399703    0.801174    0.389282     0.005394
PD1824   PD        0.431756    0.766688    0.390087     0.005394
AU1825   AU        0.435218    0.798764    0.354664     0.007504
AU1826   AU        0.464006    0.766202    0.357659     0.007504
AU1827   AU        0.464900    0.800354    0.389893     0.007504
AU1828   AU        0.501106    0.766207    0.386823     0.007504
PD1829   PD        0.496761    0.798878    0.355051     0.005394
PD1830   PD        0.531834    0.767130    0.355223     0.005394
AU1831   AU        0.531766    0.800413    0.386526     0.007504
PD1832   PD        0.569149    0.766831    0.388835     0.005394
PD1833   PD        0.566062    0.797894    0.355625     0.005394
AU1834   AU        0.599048    0.764308    0.355478     0.007504
PD1835   PD        0.598145    0.796639    0.388010     0.005394
AU1836   AU        0.633279    0.766906    0.387228     0.007504
PD1837   PD        0.632161    0.796484    0.352396     0.005394
AU1838   AU        0.665642    0.765209    0.354872     0.007504
PD1839   PD        0.701840    0.761778    0.389678     0.005394
PD1840   PD        0.414032    0.899812    0.348887     0.005394
PD1841   PD        0.468301    0.830470    0.353920     0.005394
AU1842   AU        0.500754    0.832753    0.387885     0.007504
PD1843   PD        0.268868    0.034397    0.426606     0.005394
AU1844   AU        0.334279    0.068832    0.457315     0.007504
PD1845   PD        0.366060    0.069970    0.425697     0.005394
PD1846   PD        0.398731    0.035747    0.424882     0.005394
PD1847   PD        0.398774    0.068962    0.456007     0.005394
PD1848   PD        0.432374    0.034723    0.459724     0.005394
PD1849   PD        0.431768    0.068170    0.426628     0.005394
PD1850   PD        0.464484    0.033431    0.424925     0.005394
AU1851   AU        0.466887    0.070759    0.457807     0.007504
AU1852   AU        0.498623    0.035097    0.453649     0.007504
AU1853   AU        0.499407    0.072252    0.425080     0.007504
PD1854   PD        0.568378    0.000667    0.358865     0.005394
PD1855   PD        0.533077    0.067469    0.457202     0.005394
PD1856   PD        0.569525    0.072042    0.425386     0.005394
PD1857   PD        0.601593    0.069823    0.456894     0.005394
PD1858   PD        0.634793    0.070134    0.426814     0.005394
AU1859   AU        0.167625    0.133841    0.421800     0.007504
PD1860   PD        0.233677    0.101898    0.451387     0.005394
AU1861   AU        0.235555    0.136467    0.422326     0.007504
PD1862   PD        0.266603    0.101561    0.422781     0.005394
PD1863   PD        0.267608    0.134658    0.456877     0.005394
AU1864   AU        0.299641    0.102370    0.456058     0.007504
AU1865   AU        0.299012    0.135213    0.425131     0.007504
AU1866   AU        0.331668    0.103335    0.424056     0.007504
AU1867   AU        0.334014    0.135955    0.456111     0.007504
AU1868   AU        0.363847    0.104371    0.455831     0.007504
AU1869   AU        0.365863    0.136024    0.422434     0.007504
AU1870   AU        0.399442    0.103894    0.424574     0.007504
PD1871   PD        0.398157    0.135796    0.456758     0.005394
AU1872   AU        0.433532    0.103387    0.455583     0.007504
AU1873   AU        0.432841    0.136560    0.424328     0.007504
AU1874   AU        0.466490    0.103373    0.425073     0.007504
PD1875   PD        0.468306    0.134707    0.458032     0.005394
PD1876   PD        0.502786    0.100102    0.454574     0.005394
AU1877   AU        0.501590    0.137180    0.424987     0.007504
PD1878   PD        0.535460    0.102452    0.426254     0.005394
AU1879   AU        0.534746    0.134430    0.457061     0.007504
PD1880   PD        0.569832    0.101953    0.458901     0.005394
PD1881   PD        0.567065    0.135201    0.423076     0.005394
AU1882   AU        0.602641    0.103441    0.424280     0.007504
AU1883   AU        0.598654    0.135573    0.458053     0.007504
AU1884   AU        0.632222    0.104093    0.459233     0.007504
AU1885   AU        0.632222    0.137004    0.423757     0.007504
AU1886   AU        0.664691    0.105154    0.425972     0.007504
PD1887   PD        0.666164    0.137732    0.457494     0.005394
PD1888   PD        0.663003    0.067970    0.454615     0.005394
AU1889   AU        0.697517    0.137064    0.422420     0.007504
AU1890   AU        0.734050    0.135347    0.452897     0.007504
AU1891   AU        0.132669    0.201593    0.454828     0.007504
PD1892   PD        0.167049    0.165329    0.455716     0.005394
AU1893   AU        0.168412    0.202882    0.423852     0.007504
AU1894   AU        0.200747    0.165946    0.425143     0.007504
AU1895   AU        0.201723    0.201565    0.454539     0.007504
PD1896   PD        0.233653    0.167519    0.458163     0.005394
AU1897   AU        0.233605    0.203163    0.422007     0.007504
AU1898   AU        0.267115    0.169028    0.423681     0.007504
AU1899   AU        0.266606    0.203024    0.456198     0.007504
AU1900   AU        0.299600    0.171154    0.457626     0.007504
AU1901   AU        0.299148    0.202916    0.421185     0.007504
AU1902   AU        0.331165    0.169222    0.424066     0.007504
AU1903   AU        0.332881    0.204434    0.454020     0.007504
PD1904   PD        0.367519    0.170895    0.456490     0.005394
PD1905   PD        0.366179    0.202387    0.423653     0.005394
AU1906   AU        0.397424    0.168423    0.423192     0.007504
PD1907   PD        0.399161    0.202757    0.457321     0.005394
AU1908   AU        0.432891    0.168788    0.456216     0.007504
PD1909   PD        0.429673    0.203357    0.424770     0.005394
PD1910   PD        0.464124    0.169717    0.422055     0.005394
AU1911   AU        0.465435    0.202486    0.454841     0.007504
PD1912   PD        0.497574    0.167943    0.457376     0.005394
PD1913   PD        0.497364    0.203661    0.423024     0.005394
AU1914   AU        0.534579    0.169986    0.425038     0.007504
AU1915   AU        0.533229    0.201361    0.456758     0.007504
AU1916   AU        0.567992    0.167694    0.457111     0.007504
PD1917   PD        0.564828    0.202873    0.424806     0.005394
AU1918   AU        0.598781    0.168296    0.423472     0.007504
AU1919   AU        0.599774    0.202736    0.456846     0.007504
AU1920   AU        0.631861    0.170356    0.456668     0.007504
AU1921   AU        0.631975    0.202025    0.422712     0.007504
AU1922   AU        0.664086    0.168880    0.423314     0.007504
AU1923   AU        0.667636    0.199801    0.456511     0.007504
PD1924   PD        0.701982    0.168856    0.456091     0.005394
AU1925   AU        0.700220    0.201524    0.421844     0.007504
AU1926   AU        0.732348    0.168280    0.422202     0.007504
PD1927   PD        0.731987    0.205056    0.453989     0.005394
AU1928   AU        0.766427    0.167479    0.453553     0.007504
AU1929   AU        0.765486    0.203636    0.422476     0.007504
PD1930   PD        0.799172    0.198167    0.454514     0.005394
PD1931   PD        0.100296    0.266042    0.424950     0.005394
PD1932   PD        0.134330    0.237334    0.423723     0.005394
AU1933   AU        0.137461    0.268770    0.456447     0.007504
PD1934   PD        0.169023    0.233453    0.456161     0.005394
PD1935   PD        0.169061    0.270291    0.423008     0.005394
PD1936   PD        0.201825    0.234801    0.424108     0.005394
AU1937   AU        0.203223    0.268916    0.455693     0.007504
AU1938   AU        0.232979    0.236497    0.456244     0.007504
AU1939   AU        0.236342    0.268677    0.423058     0.007504
AU1940   AU        0.266310    0.237086    0.423989     0.007504
PD1941   PD        0.267296    0.272586    0.455690     0.005394
AU1942   AU        0.298139    0.234259    0.455706     0.007504
AU1943   AU        0.298227    0.268951    0.422684     0.007504
AU1944   AU        0.331016    0.236478    0.421706     0.007504
AU1945   AU        0.330618    0.268573    0.456112     0.007504
AU1946   AU        0.365140    0.238471    0.455791     0.007504
AU1947   AU        0.365392    0.270105    0.422284     0.007504
PD1948   PD        0.399036    0.235615    0.423006     0.005394
AU1949   AU        0.399584    0.268906    0.454768     0.007504
AU1950   AU        0.431981    0.236122    0.458008     0.007504
PD1951   PD        0.432461    0.268867    0.423402     0.005394
PD1952   PD        0.466912    0.234942    0.424121     0.005394
AU1953   AU        0.465595    0.270244    0.456849     0.007504
AU1954   AU        0.498319    0.235854    0.455994     0.007504
PD1955   PD        0.500218    0.268781    0.423960     0.005394
PD1956   PD        0.532213    0.233694    0.422385     0.005394
AU1957   AU        0.532100    0.267714    0.455487     0.007504
AU1958   AU        0.564512    0.234999    0.456722     0.007504
AU1959   AU        0.563580    0.269066    0.422305     0.007504
PD1960   PD        0.598053    0.232976    0.423100     0.005394
PD1961   PD        0.598598    0.269131    0.455062     0.005394
PD1962   PD        0.636498    0.232794    0.458095     0.005394
PD1963   PD        0.630206    0.264746    0.422405     0.005394
AU1964   AU        0.665972    0.233834    0.422196     0.007504
AU1965   AU        0.666030    0.268613    0.454354     0.007504
PD1966   PD        0.699127    0.234359    0.456099     0.005394
PD1967   PD        0.700144    0.269102    0.423319     0.005394
PD1968   PD        0.731325    0.235619    0.423319     0.005394
PD1969   PD        0.734330    0.269640    0.455421     0.005394
AU1970   AU        0.767255    0.234650    0.455193     0.007504
AU1971   AU        0.766240    0.267327    0.422442     0.007504
AU1972   AU        0.800272    0.235753    0.420313     0.007504
PD1973   PD        0.797857    0.266002    0.454099     0.005394
PD1974   PD        0.835501    0.270856    0.419996     0.005394
PD1975   PD        0.103634    0.299801    0.456984     0.005394
AU1976   AU        0.101949    0.335080    0.423070     0.007504
AU1977   AU        0.134990    0.303057    0.422544     0.007504
AU1978   AU        0.135422    0.337439    0.457057     0.007504
AU1979   AU        0.166939    0.302943    0.456741     0.007504
AU1980   AU        0.166616    0.334463    0.424810     0.007504
PD1981   PD        0.200237    0.303281    0.426598     0.005394
PD1982   PD        0.201274    0.337733    0.456565     0.005394
PD1983   PD        0.234570    0.302883    0.457058     0.005394
PD1984   PD        0.235237    0.335064    0.422403     0.005394
AU1985   AU        0.269225    0.302111    0.422122     0.007504
PD1986   PD        0.267082    0.338739    0.454266     0.005394
AU1987   AU        0.300466    0.301799    0.457780     0.007504
AU1988   AU        0.301825    0.335815    0.422898     0.007504
PD1989   PD        0.333946    0.303295    0.423099     0.005394
AU1990   AU        0.332983    0.336663    0.457728     0.007504
PD1991   PD        0.365701    0.302730    0.455313     0.005394
PD1992   PD        0.366002    0.337042    0.422793     0.005394
AU1993   AU        0.397505    0.304222    0.423707     0.007504
AU1994   AU        0.398716    0.336433    0.456378     0.007504
PD1995   PD        0.431787    0.302049    0.454158     0.005394
PD1996   PD        0.430684    0.334873    0.422647     0.005394
AU1997   AU        0.466377    0.303093    0.423003     0.007504
AU1998   AU        0.465331    0.333484    0.455622     0.007504
AU1999   AU        0.498290    0.303070    0.457309     0.007504
AU2000   AU        0.500171    0.335024    0.423525     0.007504
PD2001   PD        0.534184    0.301875    0.422435     0.005394
AU2002   AU        0.531916    0.334998    0.454201     0.007504
PD2003   PD        0.565509    0.301252    0.455521     0.005394
AU2004   AU        0.567109    0.336119    0.422085     0.007504
AU2005   AU        0.597604    0.303167    0.423497     0.007504
PD2006   PD        0.597475    0.337583    0.456689     0.005394
PD2007   PD        0.631870    0.300542    0.456451     0.005394
PD2008   PD        0.629984    0.337794    0.419071     0.005394
PD2009   PD        0.667321    0.303645    0.423723     0.005394
PD2010   PD        0.667069    0.333743    0.455492     0.005394
AU2011   AU        0.699497    0.302644    0.454090     0.007504
PD2012   PD        0.700809    0.336156    0.422880     0.005394
AU2013   AU        0.735221    0.302386    0.421373     0.007504
PD2014   PD        0.735037    0.334838    0.456685     0.005394
AU2015   AU        0.767150    0.302319    0.456250     0.007504
PD2016   PD        0.766677    0.336223    0.420055     0.005394
AU2017   AU        0.798191    0.301301    0.421789     0.007504
AU2018   AU        0.797355    0.334766    0.452518     0.007504
PD2019   PD        0.830224    0.299008    0.457455     0.005394
PD2020   PD        0.829916    0.335821    0.423356     0.005394
PD2021   PD        0.070023    0.367193    0.423167     0.005394
PD2022   PD        0.000667    0.402328    0.455482     0.005394
AU2023   AU        0.100998    0.368400    0.455262     0.007504
PD2024   PD        0.098728    0.401675    0.420387     0.005394
AU2025   AU        0.133498    0.370097    0.421671     0.007504
PD2026   PD        0.134026    0.400431    0.455853     0.005394
AU2027   AU        0.168299    0.369926    0.457363     0.007504
PD2028   PD        0.167177    0.403134    0.420299     0.005394
AU2029   AU        0.198961    0.368528    0.422084     0.007504
PD2030   PD        0.200361    0.401421    0.455136     0.005394
AU2031   AU        0.232985    0.369398    0.455052     0.007504
PD2032   PD        0.233255    0.402565    0.421396     0.005394
AU2033   AU        0.267363    0.370335    0.422701     0.007504
PD2034   PD        0.266756    0.401238    0.456072     0.005394
PD2035   PD        0.298580    0.368929    0.452942     0.005394
PD2036   PD        0.299901    0.402319    0.422298     0.005394
AU2037   AU        0.334232    0.370039    0.421791     0.007504
AU2038   AU        0.332765    0.401917    0.455069     0.007504
AU2039   AU        0.365814    0.370430    0.456129     0.007504
PD2040   PD        0.365829    0.401655    0.422329     0.005394
AU2041   AU        0.398160    0.369036    0.423129     0.007504
AU2042   AU        0.399973    0.402080    0.456109     0.007504
AU2043   AU        0.431096    0.366628    0.455357     0.007504
AU2044   AU        0.432453    0.402380    0.422170     0.007504
PD2045   PD        0.468511    0.367606    0.425119     0.005394
AU2046   AU        0.464082    0.401548    0.454846     0.007504
AU2047   AU        0.497196    0.366368    0.458054     0.007504
PD2048   PD        0.499600    0.400410    0.426078     0.005394
PD2049   PD        0.530384    0.369717    0.423546     0.005394
AU2050   AU        0.532547    0.403265    0.455974     0.007504
PD2051   PD        0.565061    0.368907    0.456597     0.005394
PD2052   PD        0.567302    0.403860    0.422186     0.005394
PD2053   PD        0.598613    0.368671    0.422832     0.005394
AU2054   AU        0.599655    0.401651    0.455574     0.007504
PD2055   PD        0.634003    0.367953    0.455303     0.005394
AU2056   AU        0.632970    0.402007    0.421975     0.007504
AU2057   AU        0.665346    0.369720    0.420560     0.007504
AU2058   AU        0.666264    0.403500    0.455749     0.007504
PD2059   PD        0.697696    0.369888    0.454142     0.005394
AU2060   AU        0.700569    0.404085    0.421450     0.007504
PD2061   PD        0.733576    0.368698    0.423840     0.005394
PD2062   PD        0.732762    0.402997    0.455835     0.005394
PD2063   PD        0.767486    0.370611    0.457559     0.005394
PD2064   PD        0.768678    0.403105    0.421714     0.005394
PD2065   PD        0.798987    0.370530    0.422169     0.005394
PD2066   PD        0.800067    0.402389    0.456798     0.005394
AU2067   AU        0.832517    0.371439    0.456286     0.007504
AU2068   AU        0.832687    0.403394    0.423957     0.007504
PD2069   PD        0.867508    0.370382    0.421008     0.005394
PD2070   PD        0.863878    0.402114    0.454471     0.005394
PD2071   PD        0.066051    0.437047    0.420147     0.005394
PD2072   PD        0.033479    0.436907    0.453818     0.005394
AU2073   AU        0.099920    0.435611    0.452252     0.007504
AU2074   AU        0.102180    0.469144    0.419076     0.007504
PD2075   PD        0.133122    0.433797    0.420690     0.005394
AU2076   AU        0.133705    0.469031    0.454099     0.007504
PD2077   PD        0.166599    0.433903    0.455544     0.005394
AU2078   AU        0.168497    0.466979    0.421817     0.007504
AU2079   AU        0.201799    0.436020    0.421851     0.007504
PD2080   PD        0.199315    0.466940    0.455585     0.005394
AU2081   AU        0.233859    0.437332    0.455528     0.007504
PD2082   PD        0.232450    0.466228    0.422203     0.005394
AU2083   AU        0.269705    0.435379    0.421555     0.007504
AU2084   AU        0.268831    0.468458    0.456639     0.007504
AU2085   AU        0.300551    0.435622    0.457871     0.007504
AU2086   AU        0.299957    0.470095    0.419749     0.007504
AU2087   AU        0.332335    0.436342    0.421872     0.007504
AU2088   AU        0.331772    0.469579    0.455558     0.007504
AU2089   AU        0.366499    0.434655    0.455936     0.007504
AU2090   AU        0.367581    0.469533    0.421241     0.007504
PD2091   PD        0.397983    0.434152    0.422244     0.005394
PD2092   PD        0.400560    0.467449    0.453486     0.005394
PD2093   PD        0.433636    0.435465    0.454088     0.005394
AU2094   AU        0.434188    0.467834    0.422510     0.007504
PD2095   PD        0.466330    0.435037    0.421342     0.005394
AU2096   AU        0.466146    0.466949    0.455460     0.007504
PD2097   PD        0.497897    0.435143    0.456576     0.005394
AU2098   AU        0.499212    0.469114    0.422712     0.007504
AU2099   AU        0.533232    0.436418    0.422463     0.007504
AU2100   AU        0.534914    0.469127    0.455386     0.007504
PD2101   PD        0.565724    0.432375    0.455490     0.005394
AU2102   AU        0.566656    0.468439    0.424155     0.007504
AU2103   AU        0.601329    0.437249    0.420622     0.007504
PD2104   PD        0.600303    0.468265    0.452631     0.005394
AU2105   AU        0.632992    0.436827    0.453890     0.007504
AU2106   AU        0.634147    0.468231    0.421032     0.007504
AU2107   AU        0.666716    0.436593    0.422021     0.007504
AU2108   AU        0.666496    0.470213    0.456690     0.007504
AU2109   AU        0.697365    0.438155    0.455558     0.007504
AU2110   AU        0.698342    0.468572    0.421389     0.007504
AU2111   AU        0.734040    0.436963    0.420014     0.007504
AU2112   AU        0.733122    0.469098    0.452402     0.007504
PD2113   PD        0.766646    0.435632    0.453563     0.005394
AU2114   AU        0.766589    0.469917    0.421931     0.007504
AU2115   AU        0.800563    0.436933    0.420857     0.007504
AU2116   AU        0.801671    0.469763    0.453853     0.007504
AU2117   AU        0.832165    0.436818    0.452867     0.007504
AU2118   AU        0.831018    0.470246    0.419992     0.007504
AU2119   AU        0.866477    0.434048    0.420396     0.007504
PD2120   PD        0.897618    0.472667    0.489999     0.005394
AU2121   AU        0.069274    0.500898    0.421057     0.007504
AU2122   AU        0.101710    0.500792    0.452666     0.007504
AU2123   AU        0.100297    0.533405    0.421975     0.007504
AU2124   AU        0.135792    0.499780    0.419402     0.007504
AU2125   AU        0.133408    0.533548    0.454304     0.007504
PD2126   PD        0.166361    0.498604    0.454933     0.005394
PD2127   PD        0.166363    0.533470    0.423348     0.005394
AU2128   AU        0.198683    0.500193    0.422333     0.007504
AU2129   AU        0.200646    0.532603    0.456198     0.007504
PD2130   PD        0.235452    0.500533    0.454403     0.005394
AU2131   AU        0.234957    0.533588    0.421514     0.007504
AU2132   AU        0.268064    0.501834    0.421242     0.007504
AU2133   AU        0.267589    0.532704    0.453739     0.007504
AU2134   AU        0.301197    0.501011    0.457334     0.007504
AU2135   AU        0.303352    0.533833    0.424211     0.007504
PD2136   PD        0.333780    0.502586    0.422564     0.005394
AU2137   AU        0.336588    0.533353    0.456845     0.007504
AU2138   AU        0.369560    0.499747    0.454730     0.007504
AU2139   AU        0.366943    0.533914    0.422285     0.007504
AU2140   AU        0.402236    0.501011    0.421328     0.007504
PD2141   PD        0.399997    0.533742    0.455808     0.005394
AU2142   AU        0.434155    0.501624    0.454951     0.007504
AU2143   AU        0.432760    0.535496    0.421297     0.007504
PD2144   PD        0.466189    0.501936    0.421794     0.005394
PD2145   PD        0.466309    0.534024    0.454651     0.005394
PD2146   PD        0.499258    0.501975    0.458860     0.005394
AU2147   AU        0.499323    0.533289    0.423708     0.007504
AU2148   AU        0.532871    0.502316    0.420696     0.007504
AU2149   AU        0.532938    0.534080    0.454848     0.007504
AU2150   AU        0.566225    0.503049    0.454052     0.007504
AU2151   AU        0.567483    0.534872    0.420613     0.007504
PD2152   PD        0.600231    0.501944    0.423108     0.005394
AU2153   AU        0.601346    0.536118    0.454799     0.007504
AU2154   AU        0.632636    0.502922    0.455234     0.007504
PD2155   PD        0.632348    0.536436    0.422680     0.005394
AU2156   AU        0.667026    0.500412    0.423536     0.007504
AU2157   AU        0.665420    0.534846    0.453245     0.007504
AU2158   AU        0.699522    0.502692    0.454733     0.007504
AU2159   AU        0.699991    0.534904    0.421060     0.007504
AU2160   AU        0.732186    0.500811    0.420906     0.007504
AU2161   AU        0.731017    0.534527    0.452680     0.007504
AU2162   AU        0.767124    0.503757    0.454566     0.007504
AU2163   AU        0.766001    0.534250    0.419841     0.007504
PD2164   PD        0.800589    0.502107    0.421559     0.005394
AU2165   AU        0.799424    0.537154    0.454581     0.007504
AU2166   AU        0.833003    0.500830    0.453764     0.007504
PD2167   PD        0.833352    0.536475    0.421739     0.005394
PD2168   PD        0.864990    0.501220    0.419562     0.005394
AU2169   AU        0.099876    0.566588    0.458894     0.007504
PD2170   PD        0.098436    0.598134    0.424117     0.005394
PD2171   PD        0.135277    0.565485    0.420995     0.005394
AU2172   AU        0.133388    0.601998    0.453902     0.007504
PD2173   PD        0.167811    0.567246    0.456277     0.005394
PD2174   PD        0.169297    0.598500    0.422279     0.005394
PD2175   PD        0.204011    0.567302    0.423221     0.005394
AU2176   AU        0.201586    0.600781    0.457057     0.007504
PD2177   PD        0.233780    0.568879    0.457591     0.005394
AU2178   AU        0.234411    0.600391    0.421665     0.007504
AU2179   AU        0.269887    0.567521    0.422315     0.007504
AU2180   AU        0.268345    0.601250    0.454845     0.007504
PD2181   PD        0.301418    0.568177    0.456190     0.005394
AU2182   AU        0.300755    0.601608    0.422813     0.007504
PD2183   PD        0.334903    0.569296    0.421701     0.005394
PD2184   PD        0.335084    0.602327    0.455454     0.005394
PD2185   PD        0.368003    0.567753    0.454730     0.005394
AU2186   AU        0.367299    0.601662    0.422741     0.007504
AU2187   AU        0.399288    0.567675    0.420942     0.007504
PD2188   PD        0.401376    0.600907    0.453946     0.005394
AU2189   AU        0.432089    0.568083    0.454253     0.007504
AU2190   AU        0.434013    0.601185    0.423807     0.007504
AU2191   AU        0.466023    0.567159    0.423425     0.007504
PD2192   PD        0.465219    0.598416    0.458705     0.005394
AU2193   AU        0.500421    0.567398    0.454996     0.007504
PD2194   PD        0.496459    0.599690    0.421684     0.005394
PD2195   PD        0.533279    0.569669    0.423637     0.005394
PD2196   PD        0.532568    0.601720    0.451923     0.005394
AU2197   AU        0.565571    0.566754    0.454782     0.007504
PD2198   PD        0.567303    0.600511    0.421465     0.005394
PD2199   PD        0.599855    0.570038    0.422965     0.005394
PD2200   PD        0.598708    0.601505    0.454692     0.005394
AU2201   AU        0.633410    0.567249    0.455152     0.007504
PD2202   PD        0.632027    0.601249    0.423834     0.005394
AU2203   AU        0.666921    0.567467    0.420276     0.007504
PD2204   PD        0.667211    0.602490    0.453440     0.005394
AU2205   AU        0.700394    0.565678    0.453115     0.007504
AU2206   AU        0.698234    0.601899    0.419122     0.007504
PD2207   PD        0.733830    0.567571    0.421675     0.005394
AU2208   AU        0.732072    0.599995    0.455304     0.007504
AU2209   AU        0.766600    0.567445    0.454187     0.007504
PD2210   PD        0.765998    0.603312    0.422892     0.005394
AU2211   AU        0.798920    0.570399    0.419979     0.007504
AU2212   AU        0.800082    0.600513    0.455551     0.007504
AU2213   AU        0.834788    0.568085    0.455738     0.007504
PD2214   PD        0.872667    0.667418    0.465822     0.005394
AU2215   AU        0.131511    0.630856    0.422319     0.007504
AU2216   AU        0.133641    0.664288    0.455163     0.007504
PD2217   PD        0.168160    0.630617    0.454746     0.005394
AU2218   AU        0.166544    0.664407    0.424283     0.007504
PD2219   PD        0.200920    0.632403    0.422524     0.005394
AU2220   AU        0.199085    0.665057    0.456623     0.007504
AU2221   AU        0.233466    0.632782    0.455491     0.007504
PD2222   PD        0.234121    0.667113    0.423921     0.005394
AU2223   AU        0.266574    0.634423    0.423006     0.007504
AU2224   AU        0.265327    0.668038    0.455503     0.007504
AU2225   AU        0.300128    0.633912    0.454194     0.007504
AU2226   AU        0.302464    0.667896    0.419644     0.007504
AU2227   AU        0.334508    0.635149    0.422454     0.007504
AU2228   AU        0.334747    0.669008    0.455586     0.007504
AU2229   AU        0.365130    0.634416    0.455391     0.007504
AU2230   AU        0.366147    0.668321    0.421911     0.007504
AU2231   AU        0.399367    0.633912    0.423864     0.007504
AU2232   AU        0.397214    0.667504    0.456546     0.007504
PD2233   PD        0.432192    0.634814    0.455784     0.005394
AU2234   AU        0.431681    0.667248    0.421872     0.007504
AU2235   AU        0.465282    0.634365    0.421910     0.007504
AU2236   AU        0.467350    0.666618    0.453474     0.007504
AU2237   AU        0.497798    0.633869    0.453549     0.007504
AU2238   AU        0.500327    0.666603    0.421079     0.007504
PD2239   PD        0.533195    0.634750    0.421734     0.005394
AU2240   AU        0.532949    0.667955    0.454564     0.007504
PD2241   PD        0.563952    0.635050    0.453494     0.005394
AU2242   AU        0.566568    0.667190    0.421051     0.007504
AU2243   AU        0.599918    0.632853    0.419803     0.007504
PD2244   PD        0.601526    0.665717    0.453257     0.005394
AU2245   AU        0.634220    0.635880    0.451830     0.007504
AU2246   AU        0.634076    0.667238    0.419522     0.007504
AU2247   AU        0.666608    0.635139    0.419245     0.007504
AU2248   AU        0.665176    0.668089    0.453790     0.007504
AU2249   AU        0.700023    0.633934    0.452902     0.007504
AU2250   AU        0.698179    0.667225    0.420499     0.007504
AU2251   AU        0.732333    0.633148    0.422888     0.007504
PD2252   PD        0.731463    0.667264    0.454040     0.005394
PD2253   PD        0.763259    0.632547    0.454079     0.005394
AU2254   AU        0.764552    0.665849    0.421800     0.007504
PD2255   PD        0.796931    0.632134    0.421849     0.005394
AU2256   AU        0.799198    0.665826    0.454654     0.007504
PD2257   PD        0.169567    0.697553    0.454521     0.005394
PD2258   PD        0.199937    0.698554    0.422523     0.005394
PD2259   PD        0.147330    0.746785    0.433484     0.005394
PD2260   PD        0.232605    0.698611    0.458070     0.005394
PD2261   PD        0.232907    0.730814    0.421178     0.005394
PD2262   PD        0.265180    0.697592    0.421742     0.005394
PD2263   PD        0.267566    0.730542    0.453402     0.005394
PD2264   PD        0.296939    0.698479    0.454404     0.005394
PD2265   PD        0.302293    0.733300    0.419517     0.005394
PD2266   PD        0.334135    0.699011    0.418685     0.005394
AU2267   AU        0.332903    0.731294    0.453427     0.007504
AU2268   AU        0.366909    0.699991    0.455725     0.007504
PD2269   PD        0.367016    0.730476    0.421568     0.005394
AU2270   AU        0.399045    0.700670    0.421984     0.007504
PD2271   PD        0.400110    0.731628    0.455759     0.005394
PD2272   PD        0.431661    0.698615    0.455403     0.005394
AU2273   AU        0.435239    0.731075    0.423782     0.007504
PD2274   PD        0.466703    0.695764    0.420650     0.005394
PD2275   PD        0.469549    0.729750    0.454257     0.005394
AU2276   AU        0.498928    0.701596    0.453165     0.007504
PD2277   PD        0.500587    0.734340    0.420627     0.005394
AU2278   AU        0.532017    0.700874    0.420009     0.007504
AU2279   AU        0.532003    0.731990    0.455197     0.007504
AU2280   AU        0.567309    0.700414    0.454095     0.007504
PD2281   PD        0.564727    0.734939    0.422194     0.005394
AU2282   AU        0.599790    0.698858    0.419672     0.007504
PD2283   PD        0.597918    0.732244    0.452482     0.005394
AU2284   AU        0.633199    0.699836    0.452690     0.007504
AU2285   AU        0.633787    0.734502    0.419564     0.007504
AU2286   AU        0.667173    0.700585    0.420589     0.007504
AU2287   AU        0.666508    0.733352    0.452727     0.007504
PD2288   PD        0.700200    0.699883    0.451629     0.005394
PD2289   PD        0.697442    0.731699    0.420910     0.005394
AU2290   AU        0.732258    0.698945    0.419924     0.007504
PD2291   PD        0.731333    0.732551    0.454112     0.005394
AU2292   AU        0.766335    0.701741    0.452001     0.007504
PD2293   PD        0.234823    0.768932    0.451209     0.005394
AU2294   AU        0.267185    0.766170    0.417878     0.007504
AU2295   AU        0.302066    0.764286    0.452531     0.007504
AU2296   AU        0.301828    0.797532    0.419682     0.007504
AU2297   AU        0.334446    0.766023    0.419200     0.007504
PD2298   PD        0.335486    0.796274    0.451941     0.005394
PD2299   PD        0.368970    0.764222    0.450548     0.005394
AU2300   AU        0.366387    0.799639    0.420034     0.007504
PD2301   PD        0.397844    0.765950    0.422155     0.005394
PD2302   PD        0.401039    0.797576    0.455857     0.005394
AU2303   AU        0.432252    0.765360    0.452346     0.007504
AU2304   AU        0.430675    0.799540    0.423786     0.007504
AU2305   AU        0.464806    0.766943    0.420262     0.007504
AU2306   AU        0.465762    0.797168    0.454488     0.007504
AU2307   AU        0.500021    0.766272    0.454978     0.007504
AU2308   AU        0.498250    0.800720    0.420349     0.007504
PD2309   PD        0.531231    0.765911    0.420051     0.005394
AU2310   AU        0.530238    0.799059    0.452259     0.007504
PD2311   PD        0.563704    0.766483    0.453320     0.005394
AU2312   AU        0.561968    0.798530    0.419691     0.007504
PD2313   PD        0.598825    0.769031    0.424190     0.005394
PD2314   PD        0.594460    0.802161    0.453920     0.005394
PD2315   PD        0.669467    0.799953    0.451331     0.005394
PD2316   PD        0.631843    0.799611    0.421920     0.005394
PD2317   PD        0.667684    0.766960    0.417803     0.005394
PD2318   PD        0.701152    0.765014    0.450661     0.005394
PD2319   PD        0.396899    0.834033    0.426671     0.005394
AU2320   AU        0.432582    0.832957    0.457963     0.007504
PD2321   PD        0.464734    0.867628    0.454171     0.005394
PD2322   PD        0.500686    0.833885    0.453447     0.005394
PD2323   PD        0.533044    0.833461    0.420370     0.005394
PD2324   PD        0.301954    0.066819    0.491396     0.005394
AU2325   AU        0.335710    0.070165    0.522158     0.007504
AU2326   AU        0.367569    0.071380    0.487459     0.007504
PD2327   PD        0.401643    0.069180    0.521368     0.005394
AU2328   AU        0.433338    0.069608    0.488926     0.007504
AU2329   AU        0.466828    0.034539    0.489642     0.007504
AU2330   AU        0.466372    0.070352    0.522038     0.007504
AU2331   AU        0.500657    0.068957    0.486924     0.007504
PD2332   PD        0.531918    0.068829    0.520853     0.005394
AU2333   AU        0.566672    0.069215    0.491610     0.007504
PD2334   PD        0.567191    0.039016    0.524956     0.005394
PD2335   PD        0.634466    0.069183    0.491247     0.005394
PD2336   PD        0.234650    0.137590    0.488565     0.005394
AU2337   AU        0.266411    0.103691    0.490566     0.007504
AU2338   AU        0.270182    0.136054    0.523332     0.007504
AU2339   AU        0.303175    0.103988    0.524803     0.007504
AU2340   AU        0.299173    0.135927    0.488200     0.007504
AU2341   AU        0.333963    0.105860    0.489906     0.007504
PD2342   PD        0.334975    0.137740    0.521799     0.005394
AU2343   AU        0.369090    0.102592    0.523393     0.007504
AU2344   AU        0.367806    0.136304    0.488805     0.007504
AU2345   AU        0.400647    0.102996    0.488448     0.007504
AU2346   AU        0.400122    0.135314    0.522967     0.007504
PD2347   PD        0.433845    0.102932    0.521313     0.005394
AU2348   AU        0.433028    0.134505    0.489987     0.007504
AU2349   AU        0.468473    0.102603    0.489925     0.007504
AU2350   AU        0.466097    0.135185    0.523378     0.007504
PD2351   PD        0.499710    0.102609    0.522711     0.005394
AU2352   AU        0.499583    0.137317    0.490844     0.007504
PD2353   PD        0.531288    0.104067    0.490208     0.005394
AU2354   AU        0.532311    0.134924    0.522598     0.007504
AU2355   AU        0.565101    0.102704    0.523567     0.007504
AU2356   AU        0.564378    0.134333    0.489799     0.007504
AU2357   AU        0.600167    0.101743    0.490951     0.007504
AU2358   AU        0.599427    0.136781    0.520956     0.007504
AU2359   AU        0.635322    0.100834    0.521730     0.007504
AU2360   AU        0.632888    0.134851    0.489660     0.007504
AU2361   AU        0.666584    0.103094    0.489817     0.007504
PD2362   PD        0.666867    0.135884    0.521071     0.005394
PD2363   PD        0.701318    0.136368    0.492914     0.005394
PD2364   PD        0.167470    0.205596    0.490679     0.005394
PD2365   PD        0.200287    0.168815    0.491067     0.005394
PD2366   PD        0.198866    0.202505    0.521802     0.005394
PD2367   PD        0.236617    0.169296    0.523687     0.005394
AU2368   AU        0.230565    0.201404    0.489641     0.007504
AU2369   AU        0.268816    0.169201    0.489420     0.007504
AU2370   AU        0.266614    0.202079    0.519918     0.007504
PD2371   PD        0.301718    0.169569    0.520043     0.005394
PD2372   PD        0.300388    0.203113    0.489223     0.005394
PD2373   PD        0.336198    0.171899    0.488954     0.005394
PD2374   PD        0.332363    0.201922    0.522715     0.005394
PD2375   PD        0.367405    0.169682    0.521315     0.005394
PD2376   PD        0.369203    0.204145    0.489287     0.005394
PD2377   PD        0.398956    0.167955    0.490350     0.005394
PD2378   PD        0.398908    0.202660    0.524405     0.005394
PD2379   PD        0.434140    0.168624    0.522184     0.005394
PD2380   PD        0.430741    0.202865    0.491382     0.005394
PD2381   PD        0.466420    0.169593    0.490024     0.005394
PD2382   PD        0.465382    0.203841    0.523717     0.005394
AU2383   AU        0.499570    0.169183    0.522741     0.007504
PD2384   PD        0.496725    0.204458    0.491775     0.005394
AU2385   AU        0.533340    0.169357    0.491574     0.007504
PD2386   PD        0.531327    0.201527    0.523323     0.005394
AU2387   AU        0.567962    0.170350    0.521255     0.007504
PD2388   PD        0.565125    0.201730    0.489902     0.005394
PD2389   PD        0.599220    0.169271    0.489055     0.005394
PD2390   PD        0.600921    0.203153    0.521371     0.005394
AU2391   AU        0.632141    0.169577    0.520820     0.007504
PD2392   PD        0.635218    0.203724    0.490225     0.005394
PD2393   PD        0.669565    0.169236    0.489509     0.005394
PD2394   PD        0.668116    0.200711    0.524465     0.005394
PD2395   PD        0.701035    0.168440    0.526146     0.005394
PD2396   PD        0.698370    0.201244    0.490249     0.005394
PD2397   PD        0.734834    0.167193    0.485966     0.005394
PD2398   PD        0.734253    0.202973    0.522182     0.005394
AU2399   AU        0.765129    0.201286    0.487366     0.007504
PD2400   PD        0.102899    0.269730    0.489975     0.005394
PD2401   PD        0.135188    0.236450    0.489308     0.005394
AU2402   AU        0.134147    0.266832    0.521130     0.007504
PD2403   PD        0.166184    0.237209    0.526257     0.005394
AU2404   AU        0.169568    0.268654    0.488774     0.007504
PD2405   PD        0.200488    0.237262    0.488246     0.005394
PD2406   PD        0.200551    0.267017    0.524551     0.005394
AU2407   AU        0.233368    0.236677    0.520489     0.007504
AU2408   AU        0.235142    0.269657    0.489500     0.007504
AU2409   AU        0.264456    0.235421    0.488997     0.007504
AU2410   AU        0.266080    0.268979    0.522187     0.007504
PD2411   PD        0.299939    0.235952    0.523273     0.005394
AU2412   AU        0.298722    0.268499    0.488684     0.007504
PD2413   PD        0.332087    0.233973    0.490051     0.005394
PD2414   PD        0.333451    0.266455    0.521668     0.005394
AU2415   AU        0.365126    0.235993    0.524636     0.007504
PD2416   PD        0.368137    0.269030    0.490515     0.005394
AU2417   AU        0.399583    0.238296    0.491514     0.007504
AU2418   AU        0.397119    0.270296    0.524059     0.007504
AU2419   AU        0.431698    0.237839    0.524489     0.007504
PD2420   PD        0.430733    0.272256    0.489222     0.005394
PD2421   PD        0.463597    0.236489    0.491196     0.005394
AU2422   AU        0.466453    0.269501    0.522537     0.007504
AU2423   AU        0.498194    0.235121    0.524612     0.007504
AU2424   AU        0.498483    0.268195    0.490264     0.007504
PD2425   PD        0.528603    0.235827    0.490151     0.005394
PD2426   PD        0.530792    0.267932    0.520408     0.005394
AU2427   AU        0.564449    0.236781    0.522454     0.007504
AU2428   AU        0.566029    0.268048    0.488101     0.007504
PD2429   PD        0.599270    0.235207    0.489152     0.005394
PD2430   PD        0.598821    0.266884    0.523147     0.005394
PD2431   PD        0.637679    0.234873    0.522541     0.005394
PD2432   PD        0.630964    0.268369    0.487919     0.005394
PD2433   PD        0.669342    0.235854    0.489472     0.005394
PD2434   PD        0.668443    0.267180    0.523718     0.005394
PD2435   PD        0.700679    0.234547    0.522583     0.005394
PD2436   PD        0.699156    0.270561    0.487112     0.005394
AU2437   AU        0.732733    0.236600    0.487849     0.007504
AU2438   AU        0.732430    0.269907    0.522240     0.007504
PD2439   PD        0.764763    0.236333    0.522087     0.005394
AU2440   AU        0.764869    0.269323    0.489087     0.007504
PD2441   PD        0.795708    0.234454    0.489087     0.005394
PD2442   PD        0.798651    0.267348    0.522822     0.005394
PD2443   PD        0.830152    0.272667    0.485944     0.005394
PD2444   PD        0.102781    0.301961    0.522664     0.005394
AU2445   AU        0.103862    0.333936    0.488605     0.007504
AU2446   AU        0.134693    0.301279    0.489288     0.007504
AU2447   AU        0.134807    0.335370    0.521306     0.007504
AU2448   AU        0.167326    0.302977    0.521899     0.007504
AU2449   AU        0.168656    0.336841    0.487969     0.007504
AU2450   AU        0.198840    0.303603    0.488104     0.007504
AU2451   AU        0.200797    0.334763    0.521924     0.007504
AU2452   AU        0.232321    0.302033    0.519522     0.007504
AU2453   AU        0.233202    0.335936    0.488750     0.007504
PD2454   PD        0.264190    0.304047    0.488855     0.005394
AU2455   AU        0.267406    0.338022    0.521087     0.007504
AU2456   AU        0.299017    0.302076    0.520425     0.007504
AU2457   AU        0.299569    0.335448    0.488924     0.007504
PD2458   PD        0.332457    0.299652    0.488764     0.005394
AU2459   AU        0.331344    0.336241    0.522835     0.007504
AU2460   AU        0.366421    0.303723    0.522715     0.007504
PD2461   PD        0.363980    0.334305    0.488665     0.005394
AU2462   AU        0.397771    0.301988    0.487921     0.007504
AU2463   AU        0.399385    0.336939    0.521829     0.007504
AU2464   AU        0.431191    0.303756    0.523402     0.007504
AU2465   AU        0.432365    0.333272    0.488732     0.007504
AU2466   AU        0.465160    0.300744    0.490654     0.007504
AU2467   AU        0.467760    0.336614    0.522545     0.007504
AU2468   AU        0.500337    0.303361    0.523206     0.007504
PD2469   PD        0.501386    0.334418    0.490563     0.005394
AU2470   AU        0.532853    0.300208    0.488343     0.007504
AU2471   AU        0.532765    0.336494    0.522834     0.007504
PD2472   PD        0.567477    0.300363    0.521772     0.005394
PD2473   PD        0.565414    0.333754    0.488599     0.005394
PD2474   PD        0.601974    0.303521    0.489065     0.005394
PD2475   PD        0.598966    0.337011    0.523600     0.005394
PD2476   PD        0.633937    0.303295    0.524376     0.005394
PD2477   PD        0.631654    0.337939    0.490730     0.005394
PD2478   PD        0.667154    0.300764    0.492149     0.005394
AU2479   AU        0.665319    0.335066    0.521837     0.007504
PD2480   PD        0.700459    0.302208    0.522102     0.005394
PD2481   PD        0.698232    0.335092    0.490071     0.005394
PD2482   PD        0.733060    0.300837    0.489030     0.005394
AU2483   AU        0.732501    0.335787    0.522151     0.007504
PD2484   PD        0.766108    0.302863    0.520769     0.005394
PD2485   PD        0.766180    0.334140    0.488626     0.005394
PD2486   PD        0.801340    0.303779    0.486316     0.005394
AU2487   AU        0.800358    0.338501    0.519321     0.007504
PD2488   PD        0.831512    0.298366    0.526018     0.005394
PD2489   PD        0.829689    0.337044    0.485943     0.005394
PD2490   PD        0.098509    0.370150    0.520552     0.005394
PD2491   PD        0.101279    0.402434    0.487015     0.005394
PD2492   PD        0.134870    0.370190    0.491088     0.005394
PD2493   PD        0.136262    0.399969    0.524163     0.005394
AU2494   AU        0.167680    0.369020    0.523579     0.007504
AU2495   AU        0.168731    0.402576    0.490942     0.007504
AU2496   AU        0.200119    0.368565    0.492204     0.007504
AU2497   AU        0.201312    0.402849    0.522903     0.007504
AU2498   AU        0.234058    0.369903    0.522939     0.007504
AU2499   AU        0.233522    0.399707    0.489519     0.007504
AU2500   AU        0.267567    0.368439    0.488293     0.007504
AU2501   AU        0.266740    0.401036    0.520478     0.007504
PD2502   PD        0.301640    0.369034    0.521539     0.005394
PD2503   PD        0.300741    0.399928    0.488422     0.005394
AU2504   AU        0.334620    0.370137    0.490126     0.007504
PD2505   PD        0.331107    0.401374    0.520946     0.005394
PD2506   PD        0.365683    0.368113    0.521418     0.005394
AU2507   AU        0.365968    0.401754    0.490021     0.007504
PD2508   PD        0.400336    0.369628    0.486902     0.005394
AU2509   AU        0.399211    0.400875    0.523754     0.007504
AU2510   AU        0.433197    0.367722    0.520729     0.007504
AU2511   AU        0.432451    0.401835    0.489609     0.007504
PD2512   PD        0.465896    0.367066    0.488882     0.005394
AU2513   AU        0.467427    0.402342    0.520934     0.007504
PD2514   PD        0.500595    0.367827    0.524915     0.005394
PD2515   PD        0.500069    0.400723    0.488374     0.005394
AU2516   AU        0.533309    0.368403    0.487153     0.007504
AU2517   AU        0.534770    0.398485    0.522075     0.007504
AU2518   AU        0.565546    0.369505    0.522159     0.007504
PD2519   PD        0.566260    0.404208    0.489384     0.005394
PD2520   PD        0.600143    0.370892    0.489310     0.005394
AU2521   AU        0.598941    0.401604    0.522792     0.007504
PD2522   PD        0.634950    0.371634    0.522776     0.005394
PD2523   PD        0.630572    0.400927    0.487011     0.005394
PD2524   PD        0.663642    0.370446    0.490121     0.005394
PD2525   PD        0.668118    0.401553    0.523658     0.005394
PD2526   PD        0.700605    0.369621    0.521054     0.005394
PD2527   PD        0.696580    0.403002    0.488595     0.005394
PD2528   PD        0.731592    0.371047    0.485709     0.005394
AU2529   AU        0.732915    0.404494    0.522173     0.007504
PD2530   PD        0.766688    0.370355    0.520663     0.005394
AU2531   AU        0.766483    0.404950    0.489689     0.007504
PD2532   PD        0.800007    0.369552    0.485961     0.005394
PD2533   PD        0.798632    0.403192    0.523691     0.005394
AU2534   AU        0.833554    0.371406    0.520232     0.007504
AU2535   AU        0.831224    0.404482    0.488944     0.007504
PD2536   PD        0.068412    0.434664    0.486935     0.005394
PD2537   PD        0.100987    0.434708    0.520605     0.005394
AU2538   AU        0.103332    0.465865    0.488788     0.007504
PD2539   PD        0.136818    0.432253    0.488611     0.005394
AU2540   AU        0.136529    0.468176    0.523387     0.007504
AU2541   AU        0.167842    0.436087    0.523393     0.007504
AU2542   AU        0.166175    0.467340    0.488049     0.007504
PD2543   PD        0.202570    0.436616    0.488278     0.005394
PD2544   PD        0.200989    0.468350    0.524297     0.005394
AU2545   AU        0.235839    0.432662    0.522750     0.007504
PD2546   PD        0.235501    0.470257    0.489378     0.005394
AU2547   AU        0.267597    0.434254    0.487266     0.007504
AU2548   AU        0.268531    0.466214    0.520239     0.007504
AU2549   AU        0.299907    0.433975    0.522885     0.007504
PD2550   PD        0.301685    0.467870    0.490045     0.005394
AU2551   AU        0.333145    0.435258    0.489542     0.007504
AU2552   AU        0.332515    0.467727    0.522441     0.007504
PD2553   PD        0.367339    0.433140    0.522905     0.005394
PD2554   PD        0.365076    0.469173    0.490260     0.005394
AU2555   AU        0.399720    0.433340    0.489971     0.007504
PD2556   PD        0.398534    0.467997    0.522274     0.005394
PD2557   PD        0.433278    0.434548    0.524293     0.005394
AU2558   AU        0.433144    0.466868    0.490966     0.007504
AU2559   AU        0.464407    0.434541    0.489357     0.007504
PD2560   PD        0.469085    0.469241    0.522117     0.005394
AU2561   AU        0.499586    0.433612    0.520540     0.007504
AU2562   AU        0.501665    0.468281    0.487824     0.007504
PD2563   PD        0.532491    0.434813    0.489038     0.005394
AU2564   AU        0.533012    0.467508    0.521339     0.007504
PD2565   PD        0.567518    0.436065    0.520444     0.005394
AU2566   AU        0.567417    0.466488    0.488313     0.007504
AU2567   AU        0.600886    0.437372    0.489055     0.007504
PD2568   PD        0.600039    0.470065    0.521439     0.005394
PD2569   PD        0.633706    0.433793    0.523809     0.005394
PD2570   PD        0.633234    0.467094    0.490733     0.005394
PD2571   PD        0.665025    0.435715    0.486981     0.005394
PD2572   PD        0.667510    0.471116    0.519788     0.005394
PD2573   PD        0.700280    0.435780    0.519685     0.005394
AU2574   AU        0.700844    0.469517    0.487953     0.007504
AU2575   AU        0.733946    0.435910    0.486289     0.007504
AU2576   AU        0.733668    0.468575    0.519918     0.007504
PD2577   PD        0.764557    0.435741    0.522857     0.005394
AU2578   AU        0.764656    0.467715    0.483551     0.007504
AU2579   AU        0.799887    0.436982    0.489403     0.007504
PD2580   PD        0.797818    0.469614    0.520269     0.005394
AU2581   AU        0.831111    0.436280    0.523731     0.007504
PD2582   PD        0.832091    0.468876    0.490068     0.005394
PD2583   PD        0.863618    0.435202    0.485217     0.005394
PD2584   PD        0.102239    0.500723    0.522680     0.005394
AU2585   AU        0.099511    0.531900    0.488770     0.007504
AU2586   AU        0.135394    0.501341    0.489296     0.007504
AU2587   AU        0.133481    0.533721    0.520797     0.007504
AU2588   AU        0.167952    0.499288    0.522700     0.007504
PD2589   PD        0.169146    0.532288    0.488130     0.005394
PD2590   PD        0.199777    0.501311    0.489074     0.005394
PD2591   PD        0.200258    0.531859    0.524071     0.005394
PD2592   PD        0.234669    0.502276    0.521540     0.005394
PD2593   PD        0.236348    0.533489    0.489607     0.005394
PD2594   PD        0.268652    0.503561    0.487140     0.005394
PD2595   PD        0.269174    0.531117    0.522749     0.005394
AU2596   AU        0.300992    0.501003    0.520763     0.007504
AU2597   AU        0.300685    0.534603    0.489215     0.007504
AU2598   AU        0.334143    0.501593    0.489853     0.007504
AU2599   AU        0.334747    0.533332    0.523962     0.007504
AU2600   AU        0.368237    0.501547    0.522785     0.007504
AU2601   AU        0.367406    0.533972    0.488525     0.007504
PD2602   PD        0.398102    0.499765    0.489757     0.005394
PD2603   PD        0.399801    0.534595    0.523019     0.005394
PD2604   PD        0.434796    0.500788    0.520559     0.005394
PD2605   PD        0.432788    0.532474    0.489742     0.005394
PD2606   PD        0.467260    0.499689    0.488322     0.005394
AU2607   AU        0.465463    0.536125    0.522778     0.007504
AU2608   AU        0.500835    0.501707    0.521358     0.007504
AU2609   AU        0.500498    0.535392    0.488870     0.007504
AU2610   AU        0.533653    0.501264    0.488060     0.007504
AU2611   AU        0.533013    0.535845    0.520132     0.007504
AU2612   AU        0.566114    0.500232    0.521544     0.007504
AU2613   AU        0.564691    0.534838    0.489364     0.007504
AU2614   AU        0.599809    0.500685    0.486360     0.007504
PD2615   PD        0.597898    0.535280    0.521433     0.005394
AU2616   AU        0.632220    0.501120    0.519840     0.007504
PD2617   PD        0.631953    0.535063    0.487452     0.005394
AU2618   AU        0.666537    0.503061    0.486967     0.007504
AU2619   AU        0.667015    0.533139    0.520523     0.007504
AU2620   AU        0.699892    0.502423    0.521432     0.007504
AU2621   AU        0.701142    0.533217    0.488302     0.007504
AU2622   AU        0.733290    0.502820    0.486767     0.007504
AU2623   AU        0.732856    0.535757    0.522890     0.007504
AU2624   AU        0.764368    0.503624    0.520895     0.007504
AU2625   AU        0.765383    0.535508    0.486174     0.007504
PD2626   PD        0.798494    0.502343    0.486889     0.005394
AU2627   AU        0.798095    0.534746    0.519607     0.007504
PD2628   PD        0.830218    0.502661    0.519822     0.005394
AU2629   AU        0.830746    0.533196    0.487030     0.007504
AU2630   AU        0.102183    0.565874    0.520761     0.007504
PD2631   PD        0.068031    0.665297    0.526146     0.005394
AU2632   AU        0.137021    0.566365    0.488748     0.007504
AU2633   AU        0.134047    0.600093    0.521811     0.007504
PD2634   PD        0.169777    0.567416    0.521381     0.005394
PD2635   PD        0.169315    0.600507    0.490081     0.005394
PD2636   PD        0.200101    0.565589    0.487646     0.005394
PD2637   PD        0.203382    0.599955    0.522373     0.005394
PD2638   PD        0.234357    0.566144    0.523077     0.005394
PD2639   PD        0.234745    0.598049    0.490689     0.005394
AU2640   AU        0.268620    0.566228    0.488197     0.007504
PD2641   PD        0.269238    0.602032    0.524949     0.005394
AU2642   AU        0.300970    0.567280    0.521285     0.007504
AU2643   AU        0.299775    0.600499    0.489127     0.007504
AU2644   AU        0.333181    0.568319    0.487544     0.007504
AU2645   AU        0.332438    0.600648    0.521185     0.007504
PD2646   PD        0.365655    0.566201    0.521750     0.005394
AU2647   AU        0.366474    0.602108    0.491091     0.007504
AU2648   AU        0.401277    0.566809    0.488769     0.007504
PD2649   PD        0.399360    0.600292    0.524574     0.005394
AU2650   AU        0.433168    0.568207    0.522081     0.007504
AU2651   AU        0.432020    0.600150    0.488471     0.007504
PD2652   PD        0.466086    0.567577    0.491417     0.005394
PD2653   PD        0.467654    0.600788    0.522869     0.005394
AU2654   AU        0.499988    0.568343    0.523028     0.007504
AU2655   AU        0.499992    0.600259    0.487341     0.007504
AU2656   AU        0.532384    0.568265    0.487194     0.007504
AU2657   AU        0.533012    0.602908    0.521087     0.007504
PD2658   PD        0.564469    0.566808    0.522569     0.005394
AU2659   AU        0.564651    0.601275    0.487654     0.007504
AU2660   AU        0.597404    0.567251    0.487408     0.007504
PD2661   PD        0.598541    0.602266    0.520656     0.005394
PD2662   PD        0.633215    0.566316    0.519376     0.005394
PD2663   PD        0.630606    0.600398    0.485683     0.005394
PD2664   PD        0.667518    0.567993    0.486056     0.005394
AU2665   AU        0.666180    0.601301    0.519289     0.007504
PD2666   PD        0.699578    0.566095    0.517585     0.005394
PD2667   PD        0.699590    0.597805    0.486927     0.005394
AU2668   AU        0.733584    0.566166    0.486266     0.007504
PD2669   PD        0.730579    0.598596    0.518680     0.005394
AU2670   AU        0.765304    0.568301    0.521596     0.007504
AU2671   AU        0.766195    0.600757    0.486524     0.007504
AU2672   AU        0.799031    0.567454    0.487841     0.007504
AU2673   AU        0.797400    0.600495    0.522356     0.007504
AU2674   AU        0.830440    0.569358    0.522701     0.007504
PD2675   PD        0.832143    0.599759    0.489842     0.005394
PD2676   PD        0.132778    0.630806    0.489906     0.005394
AU2677   AU        0.164230    0.634046    0.523899     0.007504
PD2678   PD        0.166382    0.663490    0.487098     0.005394
AU2679   AU        0.200765    0.633419    0.489309     0.007504
PD2680   PD        0.199536    0.665047    0.521919     0.005394
AU2681   AU        0.235087    0.631338    0.521698     0.007504
AU2682   AU        0.232553    0.667819    0.489028     0.007504
AU2683   AU        0.267738    0.633560    0.487075     0.007504
AU2684   AU        0.268419    0.667396    0.521364     0.007504
AU2685   AU        0.301754    0.634559    0.520859     0.007504
PD2686   PD        0.303172    0.666692    0.488637     0.005394
AU2687   AU        0.333183    0.634244    0.488402     0.007504
PD2688   PD        0.333556    0.667418    0.521726     0.005394
PD2689   PD        0.364158    0.636356    0.522919     0.005394
PD2690   PD        0.366488    0.667710    0.491254     0.005394
PD2691   PD        0.399738    0.633060    0.488385     0.005394
AU2692   AU        0.400900    0.665487    0.523410     0.007504
AU2693   AU        0.432309    0.631675    0.523440     0.007504
PD2694   PD        0.431998    0.664552    0.488096     0.005394
PD2695   PD        0.466153    0.635427    0.488461     0.005394
AU2696   AU        0.466850    0.666298    0.520254     0.007504
AU2697   AU        0.498437    0.633767    0.522259     0.007504
AU2698   AU        0.500062    0.666745    0.486524     0.007504
PD2699   PD        0.531003    0.635119    0.488506     0.005394
PD2700   PD        0.534381    0.667016    0.520429     0.005394
AU2701   AU        0.565715    0.636099    0.523732     0.007504
PD2702   PD        0.568186    0.666587    0.486018     0.005394
AU2703   AU        0.599494    0.634487    0.486051     0.007504
AU2704   AU        0.600147    0.667400    0.521456     0.007504
AU2705   AU        0.633992    0.634295    0.518296     0.007504
AU2706   AU        0.633066    0.668014    0.487642     0.007504
PD2707   PD        0.666778    0.636246    0.486201     0.005394
PD2708   PD        0.667804    0.667408    0.519714     0.005394
PD2709   PD        0.698569    0.634980    0.519722     0.005394
PD2710   PD        0.699820    0.667967    0.487236     0.005394
AU2711   AU        0.731509    0.634102    0.485598     0.007504
PD2712   PD        0.733082    0.668109    0.522570     0.005394
AU2713   AU        0.763106    0.632820    0.519661     0.007504
AU2714   AU        0.764028    0.666074    0.483544     0.007504
PD2715   PD        0.797164    0.632940    0.485204     0.005394
AU2716   AU        0.197929    0.699520    0.489705     0.007504
PD2717   PD        0.233358    0.700127    0.522270     0.005394
PD2718   PD        0.197166    0.758937    0.560050     0.005394
AU2719   AU        0.264900    0.697887    0.489625     0.007504
PD2720   PD        0.267368    0.732204    0.520856     0.005394
PD2721   PD        0.301351    0.698417    0.519007     0.005394
AU2722   AU        0.300457    0.733133    0.487586     0.007504
PD2723   PD        0.334368    0.700932    0.488279     0.005394
PD2724   PD        0.333578    0.731843    0.521427     0.005394
AU2725   AU        0.366764    0.700878    0.521614     0.007504
AU2726   AU        0.367969    0.734169    0.486037     0.007504
PD2727   PD        0.399825    0.699206    0.490707     0.005394
PD2728   PD        0.402119    0.732353    0.520293     0.005394
AU2729   AU        0.434856    0.699370    0.522034     0.007504
PD2730   PD        0.432702    0.733133    0.486516     0.005394
AU2731   AU        0.467629    0.698721    0.488247     0.007504
PD2732   PD        0.466648    0.732722    0.520026     0.005394
AU2733   AU        0.500907    0.699060    0.518619     0.007504
AU2734   AU        0.499015    0.735051    0.487060     0.007504
PD2735   PD        0.533917    0.700194    0.486940     0.005394
AU2736   AU        0.532019    0.733361    0.519174     0.007504
AU2737   AU        0.566274    0.700716    0.520681     0.007504
AU2738   AU        0.565870    0.734090    0.485596     0.007504
AU2739   AU        0.597976    0.700017    0.487710     0.007504
AU2740   AU        0.600633    0.732222    0.520069     0.007504
PD2741   PD        0.630802    0.700170    0.520907     0.005394
PD2742   PD        0.633795    0.732133    0.488157     0.005394
PD2743   PD        0.666832    0.700871    0.484751     0.005394
PD2744   PD        0.664896    0.733475    0.521131     0.005394
AU2745   AU        0.701653    0.699378    0.519862     0.007504
AU2746   AU        0.699120    0.731750    0.483434     0.007504
PD2747   PD        0.733897    0.699828    0.487058     0.005394
PD2748   PD        0.266662    0.763521    0.484573     0.005394
PD2749   PD        0.297199    0.767683    0.521082     0.005394
PD2750   PD        0.299754    0.801700    0.485021     0.005394
PD2751   PD        0.334076    0.765252    0.487845     0.005394
PD2752   PD        0.331967    0.797586    0.518251     0.005394
PD2753   PD        0.366068    0.764208    0.523609     0.005394
PD2754   PD        0.364727    0.864498    0.496962     0.005394
PD2755   PD        0.400460    0.768202    0.486806     0.005394
PD2756   PD        0.401749    0.794998    0.518509     0.005394
PD2757   PD        0.432628    0.765294    0.519554     0.005394
PD2758   PD        0.436780    0.797718    0.486838     0.005394
PD2759   PD        0.466773    0.764978    0.485931     0.005394
AU2760   AU        0.469271    0.797542    0.520976     0.007504
AU2761   AU        0.502107    0.766821    0.520087     0.007504
AU2762   AU        0.499109    0.800121    0.486984     0.007504
PD2763   PD        0.532212    0.768555    0.487330     0.005394
PD2764   PD        0.531087    0.802832    0.518605     0.005394
PD2765   PD        0.565242    0.765353    0.519488     0.005394
PD2766   PD        0.562910    0.801396    0.489503     0.005394
AU2767   AU        0.597355    0.768157    0.485539     0.007504
PD2768   PD        0.599029    0.799929    0.521175     0.005394
PD2769   PD        0.633046    0.766031    0.519580     0.005394
PD2770   PD        0.669748    0.830369    0.482799     0.005394
PD2771   PD        0.670480    0.793667    0.517689     0.005394
PD2772   PD        0.469549    0.866959    0.518802     0.005394
PD2773   PD        0.366696    0.072371    0.557692     0.005394
PD2774   PD        0.431524    0.073277    0.626806     0.005394
PD2775   PD        0.434721    0.071387    0.556318     0.005394
PD2776   PD        0.463564    0.067152    0.588370     0.005394
PD2777   PD        0.500621    0.067226    0.555070     0.005394
PD2778   PD        0.498021    0.039788    0.592069     0.005394
PD2779   PD        0.531690    0.032110    0.557316     0.005394
PD2780   PD        0.238553    0.132401    0.557100     0.005394
AU2781   AU        0.269466    0.138452    0.588829     0.007504
PD2782   PD        0.300676    0.101172    0.588484     0.005394
AU2783   AU        0.302233    0.138609    0.556221     0.007504
PD2784   PD        0.335098    0.070498    0.588981     0.005394
AU2785   AU        0.336301    0.135809    0.586957     0.007504
PD2786   PD        0.365275    0.103494    0.590189     0.005394
PD2787   PD        0.366499    0.135689    0.554255     0.005394
AU2788   AU        0.401951    0.103191    0.553946     0.007504
AU2789   AU        0.399116    0.136780    0.586294     0.007504
PD2790   PD        0.433041    0.105099    0.588120     0.005394
AU2791   AU        0.432633    0.136467    0.554397     0.007504
PD2792   PD        0.465165    0.102410    0.554682     0.005394
AU2793   AU        0.465734    0.136188    0.589925     0.007504
PD2794   PD        0.500207    0.102600    0.589560     0.005394
PD2795   PD        0.498664    0.136929    0.556714     0.005394
AU2796   AU        0.532685    0.100421    0.555844     0.007504
PD2797   PD        0.533736    0.138162    0.587126     0.005394
AU2798   AU        0.568230    0.105376    0.589208     0.007504
AU2799   AU        0.565438    0.133738    0.554041     0.007504
AU2800   AU        0.599526    0.102948    0.553618     0.007504
AU2801   AU        0.600519    0.135148    0.589258     0.007504
PD2802   PD        0.668092    0.071675    0.616501     0.005394
PD2803   PD        0.633569    0.133164    0.552592     0.005394
PD2804   PD        0.663162    0.131800    0.585548     0.005394
PD2805   PD        0.717118    0.091618    0.571315     0.005394
PD2806   PD        0.167185    0.202349    0.558100     0.005394
PD2807   PD        0.199717    0.171654    0.555470     0.005394
AU2808   AU        0.201779    0.202983    0.590461     0.007504
PD2809   PD        0.233979    0.170113    0.589253     0.005394
AU2810   AU        0.236026    0.201770    0.556208     0.007504
PD2811   PD        0.267570    0.168978    0.554950     0.005394
AU2812   AU        0.268468    0.203973    0.588382     0.007504
PD2813   PD        0.302873    0.171318    0.589365     0.005394
PD2814   PD        0.299421    0.201765    0.555365     0.005394
AU2815   AU        0.333839    0.170455    0.556565     0.007504
AU2816   AU        0.332746    0.204993    0.588522     0.007504
AU2817   AU        0.365027    0.169455    0.587020     0.007504
AU2818   AU        0.366798    0.203413    0.557149     0.007504
AU2819   AU        0.399247    0.170983    0.555541     0.007504
AU2820   AU        0.401346    0.204311    0.586759     0.007504
AU2821   AU        0.432074    0.169844    0.587943     0.007504
AU2822   AU        0.433103    0.203007    0.555490     0.007504
PD2823   PD        0.464452    0.168845    0.555723     0.005394
AU2824   AU        0.465009    0.202363    0.588442     0.007504
AU2825   AU        0.500898    0.168275    0.587460     0.007504
AU2826   AU        0.499176    0.202156    0.557878     0.007504
AU2827   AU        0.533311    0.168331    0.554435     0.007504
PD2828   PD        0.534227    0.202251    0.589547     0.005394
PD2829   PD        0.566274    0.169886    0.584922     0.005394
PD2830   PD        0.568039    0.202824    0.552528     0.005394
AU2831   AU        0.599542    0.167296    0.554536     0.007504
AU2832   AU        0.599081    0.201404    0.586572     0.007504
AU2833   AU        0.632568    0.167215    0.588393     0.007504
PD2834   PD        0.633561    0.200453    0.555570     0.005394
PD2835   PD        0.666262    0.166858    0.551941     0.005394
PD2836   PD        0.666398    0.198862    0.587602     0.005394
PD2837   PD        0.700635    0.166586    0.589264     0.005394
PD2838   PD        0.702223    0.204196    0.556298     0.005394
PD2839   PD        0.733230    0.167134    0.555112     0.005394
PD2840   PD        0.732259    0.201671    0.592651     0.005394
AU2841   AU        0.765007    0.205988    0.555897     0.007504
PD2842   PD        0.134444    0.271648    0.588604     0.005394
AU2843   AU        0.169695    0.238600    0.589518     0.007504
AU2844   AU        0.168309    0.271020    0.555655     0.007504
AU2845   AU        0.201881    0.234818    0.555362     0.007504
AU2846   AU        0.202856    0.268924    0.588450     0.007504
PD2847   PD        0.234325    0.234173    0.588969     0.005394
PD2848   PD        0.234195    0.268497    0.555541     0.005394
AU2849   AU        0.267041    0.235885    0.554108     0.007504
PD2850   PD        0.265615    0.267973    0.587039     0.005394
AU2851   AU        0.299453    0.235702    0.586931     0.007504
AU2852   AU        0.299490    0.270233    0.555591     0.007504
PD2853   PD        0.332443    0.237730    0.556440     0.005394
AU2854   AU        0.330988    0.270934    0.589146     0.007504
AU2855   AU        0.366477    0.238501    0.589387     0.007504
AU2856   AU        0.364256    0.268935    0.556216     0.007504
AU2857   AU        0.399538    0.237280    0.555663     0.007504
AU2858   AU        0.398818    0.268675    0.590454     0.007504
AU2859   AU        0.432918    0.235365    0.589753     0.007504
PD2860   PD        0.433365    0.268837    0.557713     0.005394
PD2861   PD        0.464582    0.237346    0.556768     0.005394
PD2862   PD        0.466060    0.270323    0.587478     0.005394
AU2863   AU        0.498223    0.237552    0.587345     0.007504
PD2864   PD        0.498729    0.269729    0.555732     0.005394
AU2865   AU        0.531906    0.235547    0.555713     0.007504
PD2866   PD        0.532647    0.271873    0.588020     0.005394
PD2867   PD        0.567115    0.237168    0.586683     0.005394
AU2868   AU        0.566508    0.268845    0.556337     0.007504
PD2869   PD        0.602423    0.236571    0.557289     0.005394
PD2870   PD        0.600236    0.270969    0.589469     0.005394
PD2871   PD        0.636677    0.235062    0.588351     0.005394
AU2872   AU        0.635894    0.269472    0.557549     0.007504
PD2873   PD        0.667461    0.236762    0.556961     0.005394
PD2874   PD        0.668329    0.267661    0.590182     0.005394
AU2875   AU        0.699979    0.234969    0.589696     0.007504
PD2876   PD        0.698205    0.271719    0.556539     0.005394
PD2877   PD        0.732341    0.237227    0.557383     0.005394
AU2878   AU        0.732934    0.270014    0.589909     0.007504
PD2879   PD        0.767868    0.236435    0.589148     0.005394
AU2880   AU        0.766944    0.268559    0.556891     0.007504
PD2881   PD        0.797069    0.269644    0.589435     0.005394
PD2882   PD        0.102981    0.336400    0.552931     0.005394
AU2883   AU        0.134847    0.303417    0.555130     0.007504
AU2884   AU        0.136129    0.335595    0.587384     0.007504
AU2885   AU        0.169360    0.303471    0.588561     0.007504
AU2886   AU        0.168405    0.334775    0.554482     0.007504
AU2887   AU        0.202232    0.303414    0.554926     0.007504
AU2888   AU        0.201051    0.334283    0.589581     0.007504
AU2889   AU        0.234625    0.304198    0.587122     0.007504
AU2890   AU        0.234696    0.335864    0.553588     0.007504
AU2891   AU        0.267023    0.302087    0.553096     0.007504
PD2892   PD        0.265999    0.336029    0.586155     0.005394
AU2893   AU        0.298167    0.303486    0.588473     0.007504
PD2894   PD        0.299937    0.334401    0.555432     0.005394
AU2895   AU        0.332631    0.301513    0.554660     0.007504
AU2896   AU        0.331718    0.334224    0.588849     0.007504
AU2897   AU        0.366168    0.302530    0.587557     0.007504
AU2898   AU        0.366595    0.335814    0.556133     0.007504
AU2899   AU        0.398413    0.304074    0.554411     0.007504
AU2900   AU        0.397965    0.336079    0.588013     0.007504
AU2901   AU        0.429994    0.301523    0.588353     0.007504
AU2902   AU        0.432110    0.337032    0.556583     0.007504
AU2903   AU        0.465235    0.303221    0.554589     0.007504
PD2904   PD        0.464769    0.338111    0.588889     0.005394
AU2905   AU        0.499316    0.303252    0.587971     0.007504
PD2906   PD        0.497175    0.332915    0.554834     0.005394
PD2907   PD        0.534381    0.301254    0.556618     0.005394
PD2908   PD        0.532881    0.335697    0.589930     0.005394
AU2909   AU        0.567286    0.302241    0.589438     0.007504
PD2910   PD        0.567174    0.336057    0.553502     0.005394
PD2911   PD        0.599535    0.302984    0.553154     0.005394
AU2912   AU        0.601169    0.337680    0.588102     0.007504
PD2913   PD        0.633223    0.301037    0.589807     0.005394
AU2914   AU        0.632207    0.337749    0.554135     0.007504
AU2915   AU        0.665932    0.304346    0.557071     0.007504
PD2916   PD        0.668322    0.336934    0.590586     0.005394
AU2917   AU        0.699484    0.304181    0.587328     0.007504
AU2918   AU        0.699100    0.336986    0.553168     0.007504
AU2919   AU        0.732719    0.302338    0.554504     0.007504
PD2920   PD        0.732467    0.335591    0.586502     0.005394
AU2921   AU        0.764398    0.302292    0.589127     0.007504
PD2922   PD        0.767279    0.335276    0.554939     0.005394
PD2923   PD        0.795718    0.303373    0.553184     0.005394
AU2924   AU        0.798002    0.333301    0.587753     0.007504
AU2925   AU        0.831577    0.338025    0.555830     0.007504
PD2926   PD        0.101313    0.367052    0.590832     0.005394
PD2927   PD        0.098752    0.399350    0.554868     0.005394
AU2928   AU        0.134883    0.367218    0.555193     0.007504
PD2929   PD        0.135288    0.402149    0.588881     0.005394
AU2930   AU        0.168413    0.366785    0.588695     0.007504
AU2931   AU        0.168368    0.401224    0.556536     0.007504
AU2932   AU        0.200639    0.368161    0.557688     0.007504
PD2933   PD        0.203103    0.401648    0.589318     0.005394
AU2934   AU        0.235132    0.369430    0.589143     0.007504
AU2935   AU        0.233460    0.400272    0.557262     0.007504
AU2936   AU        0.266288    0.370086    0.554168     0.007504
PD2937   PD        0.269667    0.401686    0.586579     0.005394
PD2938   PD        0.299611    0.368026    0.587993     0.005394
AU2939   AU        0.300544    0.403358    0.554185     0.007504
AU2940   AU        0.330858    0.368863    0.555500     0.007504
AU2941   AU        0.333530    0.401825    0.588115     0.007504
AU2942   AU        0.365165    0.368618    0.586502     0.007504
PD2943   PD        0.367007    0.400326    0.554619     0.005394
AU2944   AU        0.399614    0.368036    0.555812     0.007504
AU2945   AU        0.400098    0.402364    0.589389     0.007504
PD2946   PD        0.431511    0.366440    0.590547     0.005394
AU2947   AU        0.432583    0.399378    0.554298     0.007504
AU2948   AU        0.466549    0.369489    0.555746     0.007504
AU2949   AU        0.465056    0.402843    0.588204     0.007504
AU2950   AU        0.497500    0.367980    0.588469     0.007504
AU2951   AU        0.500345    0.401705    0.554832     0.007504
PD2952   PD        0.531187    0.368805    0.556594     0.005394
PD2953   PD        0.532600    0.404611    0.587722     0.005394
AU2954   AU        0.567694    0.370363    0.588457     0.007504
PD2955   PD        0.566191    0.401746    0.557333     0.005394
AU2956   AU        0.599027    0.369798    0.556294     0.007504
AU2957   AU        0.600691    0.402224    0.589286     0.007504
PD2958   PD        0.634589    0.371802    0.590463     0.005394
PD2959   PD        0.634341    0.402658    0.555602     0.005394
AU2960   AU        0.666548    0.370259    0.555572     0.007504
AU2961   AU        0.666620    0.403281    0.587236     0.007504
AU2962   AU        0.698712    0.370711    0.587834     0.007504
AU2963   AU        0.700474    0.403055    0.556109     0.007504
AU2964   AU        0.732469    0.368371    0.553884     0.007504
PD2965   PD        0.731154    0.404385    0.588582     0.005394
AU2966   AU        0.764574    0.370749    0.587296     0.007504
PD2967   PD        0.768590    0.402748    0.554604     0.005394
AU2968   AU        0.799537    0.370150    0.554742     0.007504
PD2969   PD        0.798528    0.404385    0.588980     0.005394
PD2970   PD        0.901855    0.335741    0.553143     0.005394
AU2971   AU        0.831461    0.403228    0.555198     0.007504
PD2972   PD        0.101666    0.436050    0.589327     0.005394
AU2973   AU        0.101956    0.465933    0.555898     0.007504
AU2974   AU        0.134070    0.432885    0.555242     0.007504
AU2975   AU        0.135984    0.467923    0.588597     0.007504
AU2976   AU        0.170175    0.432873    0.589438     0.007504
PD2977   PD        0.169643    0.467610    0.556218     0.005394
AU2978   AU        0.202561    0.435735    0.555679     0.007504
PD2979   PD        0.203265    0.467752    0.589294     0.005394
AU2980   AU        0.233900    0.434435    0.589128     0.007504
AU2981   AU        0.234637    0.467759    0.555572     0.007504
AU2982   AU        0.266218    0.434142    0.556349     0.007504
PD2983   PD        0.266781    0.468628    0.587576     0.005394
AU2984   AU        0.300826    0.435405    0.587954     0.007504
AU2985   AU        0.298152    0.467400    0.554688     0.007504
AU2986   AU        0.333580    0.434878    0.554828     0.007504
PD2987   PD        0.332990    0.467549    0.589172     0.005394
AU2988   AU        0.365742    0.434055    0.586027     0.007504
AU2989   AU        0.365732    0.468441    0.556968     0.007504
AU2990   AU        0.399547    0.434143    0.553943     0.007504
PD2991   PD        0.400496    0.468668    0.587588     0.005394
AU2992   AU        0.432093    0.434560    0.588020     0.007504
AU2993   AU        0.433854    0.466465    0.555609     0.007504
AU2994   AU        0.466133    0.435139    0.553830     0.007504
AU2995   AU        0.466377    0.469129    0.588133     0.007504
AU2996   AU        0.498744    0.435838    0.589213     0.007504
AU2997   AU        0.501501    0.469839    0.553853     0.007504
PD2998   PD        0.531594    0.433870    0.553240     0.005394
AU2999   AU        0.535514    0.468251    0.587077     0.007504
AU3000   AU        0.567322    0.435056    0.589267     0.007504
AU3001   AU        0.566443    0.467098    0.554466     0.007504
AU3002   AU        0.598951    0.434288    0.554575     0.007504
AU3003   AU        0.598173    0.470569    0.588542     0.007504
PD3004   PD        0.633366    0.435469    0.587366     0.005394
PD3005   PD        0.630473    0.465082    0.555498     0.005394
PD3006   PD        0.669934    0.435824    0.553844     0.005394
AU3007   AU        0.665663    0.468381    0.587917     0.007504
PD3008   PD        0.700191    0.435759    0.586559     0.005394
AU3009   AU        0.700032    0.468479    0.554490     0.007504
AU3010   AU        0.733561    0.437543    0.553894     0.007504
PD3011   PD        0.733996    0.470150    0.586353     0.005394
PD3012   PD        0.766571    0.433495    0.588707     0.005394
PD3013   PD        0.763325    0.467655    0.553050     0.005394
AU3014   AU        0.797226    0.437306    0.553677     0.007504
PD3015   PD        0.795842    0.471519    0.587522     0.005394
AU3016   AU        0.832891    0.437739    0.584639     0.007504
AU3017   AU        0.830480    0.469651    0.553200     0.007504
PD3018   PD        0.101448    0.498386    0.587357     0.005394
AU3019   AU        0.102868    0.534102    0.556414     0.007504
AU3020   AU        0.134717    0.501087    0.554817     0.007504
AU3021   AU        0.136003    0.532734    0.589152     0.007504
PD3022   PD        0.168120    0.501927    0.585907     0.005394
AU3023   AU        0.167159    0.532752    0.553161     0.007504
PD3024   PD        0.200584    0.500712    0.557018     0.005394
AU3025   AU        0.200769    0.533019    0.588304     0.007504
PD3026   PD        0.234073    0.500669    0.589173     0.005394
PD3027   PD        0.236083    0.534221    0.555302     0.005394
PD3028   PD        0.266734    0.500156    0.555010     0.005394
PD3029   PD        0.267036    0.533002    0.589980     0.005394
PD3030   PD        0.299193    0.500928    0.585930     0.005394
PD3031   PD        0.301344    0.533332    0.554726     0.005394
PD3032   PD        0.334824    0.499852    0.554836     0.005394
AU3033   AU        0.332948    0.533064    0.589337     0.007504
PD3034   PD        0.367719    0.500876    0.590897     0.005394
PD3035   PD        0.366249    0.533588    0.556618     0.005394
AU3036   AU        0.402082    0.500901    0.554020     0.007504
PD3037   PD        0.400062    0.533993    0.587198     0.005394
AU3038   AU        0.432993    0.502882    0.587064     0.007504
AU3039   AU        0.433815    0.535385    0.554390     0.007504
AU3040   AU        0.466451    0.502707    0.554210     0.007504
AU3041   AU        0.467384    0.534217    0.586783     0.007504
AU3042   AU        0.500448    0.501221    0.589134     0.007504
PD3043   PD        0.498931    0.534127    0.556689     0.005394
AU3044   AU        0.532730    0.502398    0.555237     0.007504
AU3045   AU        0.532674    0.532757    0.590389     0.007504
AU3046   AU        0.567064    0.501764    0.586350     0.007504
PD3047   PD        0.565901    0.536092    0.553003     0.005394
PD3048   PD        0.601411    0.502628    0.553860     0.005394
PD3049   PD        0.598810    0.535888    0.585797     0.005394
AU3050   AU        0.632404    0.502828    0.587535     0.007504
PD3051   PD        0.633234    0.533926    0.553112     0.005394
AU3052   AU        0.665679    0.501705    0.555300     0.007504
AU3053   AU        0.665620    0.532807    0.586768     0.007504
AU3054   AU        0.698001    0.500452    0.587508     0.007504
PD3055   PD        0.699085    0.535451    0.553048     0.005394
AU3056   AU        0.732104    0.502667    0.554525     0.007504
PD3057   PD        0.730684    0.534964    0.590104     0.005394
AU3058   AU        0.764537    0.503479    0.588296     0.007504
AU3059   AU        0.765367    0.535882    0.554478     0.007504
AU3060   AU        0.796491    0.503100    0.552648     0.007504
PD3061   PD        0.797041    0.562358    0.620542     0.005394
PD3062   PD        0.827283    0.501533    0.585575     0.005394
AU3063   AU        0.829236    0.535423    0.553879     0.007504
AU3064   AU        0.131968    0.567430    0.553730     0.007504
PD3065   PD        0.133317    0.600664    0.587981     0.005394
AU3066   AU        0.167431    0.566495    0.588611     0.007504
AU3067   AU        0.167400    0.596515    0.555174     0.007504
AU3068   AU        0.202066    0.566219    0.557488     0.007504
AU3069   AU        0.200952    0.600019    0.587757     0.007504
AU3070   AU        0.233441    0.567853    0.590364     0.007504
AU3071   AU        0.235647    0.600633    0.556872     0.007504
PD3072   PD        0.267369    0.565429    0.555613     0.005394
PD3073   PD        0.265493    0.602806    0.591142     0.005394
PD3074   PD        0.299424    0.566801    0.587129     0.005394
PD3075   PD        0.303412    0.599728    0.556343     0.005394
AU3076   AU        0.333811    0.567680    0.555536     0.007504
AU3077   AU        0.333773    0.600465    0.589730     0.007504
AU3078   AU        0.366005    0.567119    0.587739     0.007504
AU3079   AU        0.366334    0.600906    0.555677     0.007504
AU3080   AU        0.399679    0.567926    0.556460     0.007504
AU3081   AU        0.399359    0.598820    0.589302     0.007504
AU3082   AU        0.432613    0.565862    0.587802     0.007504
AU3083   AU        0.432354    0.600636    0.558590     0.007504
AU3084   AU        0.466495    0.567587    0.552511     0.007504
AU3085   AU        0.465510    0.600955    0.589263     0.007504
AU3086   AU        0.501698    0.567619    0.587922     0.007504
AU3087   AU        0.498759    0.601299    0.556595     0.007504
PD3088   PD        0.532108    0.569691    0.554591     0.005394
AU3089   AU        0.533554    0.603089    0.587013     0.007504
AU3090   AU        0.566540    0.567931    0.588984     0.007504
AU3091   AU        0.565472    0.602956    0.554111     0.007504
PD3092   PD        0.598609    0.565736    0.553459     0.005394
AU3093   AU        0.599422    0.602622    0.586653     0.007504
PD3094   PD        0.633912    0.570199    0.586582     0.005394
PD3095   PD        0.630460    0.601622    0.553329     0.005394
AU3096   AU        0.665553    0.567660    0.553664     0.007504
AU3097   AU        0.665949    0.602545    0.586352     0.007504
PD3098   PD        0.698579    0.569527    0.585575     0.005394
AU3099   AU        0.700357    0.600973    0.552195     0.007504
AU3100   AU        0.731768    0.567887    0.553332     0.007504
PD3101   PD        0.734176    0.600345    0.589574     0.005394
PD3102   PD        0.767068    0.567569    0.586024     0.005394
AU3103   AU        0.763214    0.600621    0.552896     0.007504
PD3104   PD        0.798928    0.569860    0.555377     0.005394
AU3105   AU        0.796127    0.633770    0.552320     0.007504
PD3106   PD        0.165973    0.631229    0.586273     0.005394
AU3107   AU        0.168917    0.666568    0.556388     0.007504
PD3108   PD        0.200724    0.631457    0.553185     0.005394
AU3109   AU        0.202718    0.666522    0.588517     0.007504
PD3110   PD        0.233941    0.633354    0.587201     0.005394
AU3111   AU        0.233583    0.666348    0.553147     0.007504
PD3112   PD        0.267371    0.634581    0.553237     0.005394
AU3113   AU        0.265981    0.664441    0.588914     0.007504
PD3114   PD        0.299665    0.634636    0.585891     0.005394
PD3115   PD        0.300626    0.668368    0.554821     0.005394
AU3116   AU        0.333297    0.632964    0.555565     0.007504
AU3117   AU        0.331796    0.664428    0.588301     0.007504
PD3118   PD        0.365970    0.633918    0.589253     0.005394
AU3119   AU        0.365092    0.666601    0.555171     0.007504
AU3120   AU        0.399698    0.634117    0.555410     0.007504
AU3121   AU        0.400306    0.667412    0.586222     0.007504
PD3122   PD        0.432464    0.633389    0.589565     0.005394
AU3123   AU        0.433723    0.665938    0.553973     0.007504
PD3124   PD        0.463989    0.632615    0.556862     0.005394
PD3125   PD        0.467572    0.667480    0.589499     0.005394
PD3126   PD        0.498656    0.635845    0.586630     0.005394
PD3127   PD        0.499871    0.665835    0.553627     0.005394
AU3128   AU        0.533029    0.635997    0.554893     0.007504
PD3129   PD        0.533088    0.668012    0.588631     0.005394
PD3130   PD        0.566869    0.634456    0.587553     0.005394
AU3131   AU        0.564550    0.669569    0.555041     0.007504
AU3132   AU        0.600495    0.635315    0.555594     0.007504
PD3133   PD        0.598866    0.668019    0.586464     0.005394
PD3134   PD        0.632957    0.635385    0.588479     0.005394
AU3135   AU        0.633070    0.666407    0.552937     0.007504
AU3136   AU        0.666879    0.633588    0.555246     0.007504
AU3137   AU        0.666509    0.666635    0.584719     0.007504
PD3138   PD        0.700418    0.633820    0.587621     0.005394
AU3139   AU        0.700232    0.665810    0.552991     0.007504
AU3140   AU        0.731856    0.633459    0.552094     0.007504
AU3141   AU        0.733734    0.666726    0.587579     0.007504
AU3142   AU        0.766362    0.632223    0.587483     0.007504
PD3143   PD        0.767917    0.699856    0.519361     0.005394
AU3144   AU        0.201561    0.701068    0.554336     0.007504
AU3145   AU        0.235164    0.697896    0.589524     0.007504
PD3146   PD        0.231662    0.732930    0.555800     0.005394
AU3147   AU        0.266125    0.697463    0.554334     0.007504
AU3148   AU        0.266983    0.731057    0.586235     0.007504
AU3149   AU        0.300932    0.698553    0.588838     0.007504
PD3150   PD        0.298158    0.731230    0.554516     0.005394
AU3151   AU        0.333581    0.700926    0.555806     0.007504
PD3152   PD        0.328670    0.732630    0.589595     0.005394
PD3153   PD        0.369257    0.702145    0.588411     0.005394
PD3154   PD        0.369675    0.729678    0.552428     0.005394
PD3155   PD        0.401098    0.699855    0.552921     0.005394
AU3156   AU        0.403579    0.733465    0.586914     0.007504
AU3157   AU        0.434940    0.698616    0.588188     0.007504
AU3158   AU        0.435065    0.732775    0.552810     0.007504
AU3159   AU        0.467107    0.699059    0.555212     0.007504
AU3160   AU        0.466275    0.731909    0.587762     0.007504
PD3161   PD        0.498500    0.700727    0.587778     0.005394
AU3162   AU        0.499232    0.732133    0.552327     0.007504
AU3163   AU        0.532355    0.701926    0.551427     0.007504
AU3164   AU        0.531312    0.732726    0.584246     0.007504
PD3165   PD        0.563262    0.701490    0.589747     0.005394
PD3166   PD        0.564935    0.734745    0.552150     0.005394
PD3167   PD        0.598640    0.703029    0.553591     0.005394
AU3168   AU        0.596326    0.734091    0.586941     0.007504
AU3169   AU        0.632532    0.700525    0.585452     0.007504
PD3170   PD        0.633164    0.732423    0.554141     0.005394
AU3171   AU        0.670183    0.700409    0.552328     0.007504
AU3172   AU        0.668369    0.733748    0.586140     0.007504
AU3173   AU        0.701384    0.698981    0.586073     0.007504
PD3174   PD        0.702975    0.735165    0.550883     0.005394
PD3175   PD        0.765767    0.764907    0.516931     0.005394
PD3176   PD        0.298933    0.764326    0.599809     0.005394
AU3177   AU        0.333277    0.763216    0.555189     0.007504
PD3178   PD        0.365081    0.764836    0.586848     0.005394
PD3179   PD        0.369700    0.803858    0.550069     0.005394
PD3180   PD        0.401669    0.765743    0.554686     0.005394
PD3181   PD        0.400150    0.796809    0.584148     0.005394
AU3182   AU        0.435020    0.766831    0.586880     0.007504
PD3183   PD        0.435707    0.796699    0.552774     0.005394
AU3184   AU        0.465837    0.764885    0.552107     0.007504
PD3185   PD        0.466524    0.799664    0.588912     0.005394
AU3186   AU        0.498137    0.764033    0.585693     0.007504
PD3187   PD        0.499517    0.798497    0.554517     0.005394
AU3188   AU        0.533519    0.763604    0.553345     0.007504
PD3189   PD        0.523599    0.836882    0.560919     0.005394
PD3190   PD        0.564608    0.766053    0.586395     0.005394
AU3191   AU        0.563731    0.796967    0.551979     0.007504
PD3192   PD        0.599432    0.766308    0.551228     0.005394
PD3193   PD        0.635412    0.764430    0.588911     0.005394
PD3194   PD        0.303397    0.138185    0.619549     0.005394
PD3195   PD        0.334385    0.137891    0.651454     0.005394
PD3196   PD        0.366259    0.138073    0.621718     0.005394
AU3197   AU        0.401772    0.104265    0.621586     0.007504
AU3198   AU        0.397255    0.136923    0.653617     0.007504
PD3199   PD        0.435007    0.105118    0.651056     0.005394
AU3200   AU        0.433305    0.138184    0.621303     0.007504
PD3201   PD        0.464717    0.104759    0.620209     0.005394
PD3202   PD        0.466618    0.137956    0.651226     0.005394
PD3203   PD        0.498972    0.104997    0.653605     0.005394
PD3204   PD        0.498297    0.135804    0.620311     0.005394
PD3205   PD        0.532322    0.107838    0.620308     0.005394
PD3206   PD        0.530228    0.136667    0.651668     0.005394
AU3207   AU        0.564648    0.139326    0.620417     0.007504
AU3208   AU        0.599394    0.139447    0.656363     0.007504
AU3209   AU        0.632659    0.131972    0.623139     0.007504
AU3210   AU        0.237588    0.204890    0.622116     0.007504
AU3211   AU        0.270664    0.171675    0.620564     0.007504
AU3212   AU        0.270029    0.203787    0.653326     0.007504
AU3213   AU        0.300342    0.168317    0.653138     0.007504
PD3214   PD        0.303238    0.205268    0.620985     0.005394
AU3215   AU        0.334200    0.170922    0.619835     0.007504
AU3216   AU        0.332417    0.202277    0.654703     0.007504
AU3217   AU        0.366115    0.170274    0.655398     0.007504
PD3218   PD        0.368721    0.201750    0.621082     0.005394
PD3219   PD        0.400136    0.169722    0.620482     0.005394
AU3220   AU        0.398444    0.204315    0.654148     0.007504
AU3221   AU        0.431155    0.171249    0.654164     0.007504
PD3222   PD        0.433622    0.203404    0.621516     0.005394
PD3223   PD        0.466885    0.169800    0.619224     0.005394
AU3224   AU        0.466748    0.204298    0.655360     0.007504
AU3225   AU        0.498579    0.169319    0.653406     0.007504
PD3226   PD        0.500105    0.204028    0.620862     0.005394
PD3227   PD        0.533497    0.172230    0.623787     0.005394
PD3228   PD        0.533356    0.202919    0.651517     0.005394
PD3229   PD        0.566663    0.172406    0.655604     0.005394
AU3230   AU        0.567207    0.203383    0.621465     0.007504
AU3231   AU        0.600746    0.168360    0.620386     0.007504
PD3232   PD        0.599310    0.202773    0.657157     0.005394
AU3233   AU        0.634805    0.166934    0.653403     0.007504
PD3234   PD        0.633595    0.201859    0.619854     0.005394
PD3235   PD        0.667587    0.169666    0.622468     0.005394
PD3236   PD        0.669286    0.200956    0.656626     0.005394
AU3237   AU        0.699139    0.200562    0.621339     0.007504
AU3238   AU        0.167272    0.271199    0.621701     0.007504
PD3239   PD        0.203570    0.238755    0.621578     0.005394
PD3240   PD        0.201541    0.270648    0.655173     0.005394
AU3241   AU        0.235737    0.236767    0.653931     0.007504
PD3242   PD        0.234676    0.269759    0.620929     0.005394
AU3243   AU        0.268958    0.236840    0.620835     0.007504
AU3244   AU        0.267665    0.270360    0.656312     0.007504
AU3245   AU        0.301160    0.236274    0.653801     0.007504
AU3246   AU        0.299931    0.269584    0.622444     0.007504
AU3247   AU        0.334720    0.236176    0.621458     0.007504
PD3248   PD        0.332117    0.269534    0.655688     0.005394
AU3249   AU        0.366152    0.234719    0.653170     0.007504
PD3250   PD        0.367146    0.267968    0.621828     0.005394
PD3251   PD        0.401168    0.237153    0.622107     0.005394
PD3252   PD        0.397829    0.267272    0.655902     0.005394
PD3253   PD        0.430313    0.234709    0.658005     0.005394
PD3254   PD        0.432501    0.268873    0.623100     0.005394
PD3255   PD        0.465064    0.237476    0.623402     0.005394
PD3256   PD        0.467662    0.270887    0.654899     0.005394
AU3257   AU        0.499336    0.235141    0.656046     0.007504
PD3258   PD        0.499683    0.268789    0.619654     0.005394
AU3259   AU        0.533005    0.236217    0.619750     0.007504
PD3260   PD        0.532127    0.267534    0.652565     0.005394
PD3261   PD        0.569536    0.235687    0.654141     0.005394
PD3262   PD        0.568572    0.268183    0.623583     0.005394
PD3263   PD        0.600531    0.236196    0.620067     0.005394
AU3264   AU        0.600641    0.268955    0.655020     0.007504
AU3265   AU        0.632978    0.234288    0.654348     0.007504
AU3266   AU        0.633041    0.269119    0.623739     0.007504
AU3267   AU        0.667138    0.236640    0.620936     0.007504
PD3268   PD        0.666906    0.269404    0.655370     0.005394
AU3269   AU        0.699190    0.237140    0.653920     0.007504
PD3270   PD        0.698277    0.269225    0.622602     0.005394
PD3271   PD        0.733977    0.235837    0.623180     0.005394
AU3272   AU        0.734053    0.269794    0.656187     0.007504
PD3273   PD        0.767886    0.304123    0.653748     0.005394
PD3274   PD        0.168911    0.299699    0.653506     0.005394
PD3275   PD        0.167981    0.335557    0.623105     0.005394
AU3276   AU        0.201940    0.301304    0.621792     0.007504
AU3277   AU        0.200641    0.335242    0.655888     0.007504
AU3278   AU        0.235239    0.302721    0.654859     0.007504
PD3279   PD        0.232561    0.335454    0.620560     0.005394
PD3280   PD        0.266406    0.300878    0.621772     0.005394
PD3281   PD        0.268993    0.335938    0.656091     0.005394
AU3282   AU        0.299728    0.302480    0.656946     0.007504
PD3283   PD        0.299763    0.335763    0.623720     0.005394
AU3284   AU        0.335275    0.304442    0.623119     0.007504
PD3285   PD        0.333019    0.336454    0.654524     0.005394
AU3286   AU        0.366674    0.302240    0.654508     0.007504
AU3287   AU        0.366671    0.337406    0.621141     0.007504
AU3288   AU        0.397971    0.302524    0.621375     0.007504
AU3289   AU        0.397100    0.337309    0.654001     0.007504
PD3290   PD        0.431367    0.301554    0.655820     0.005394
AU3291   AU        0.430754    0.335336    0.621047     0.007504
AU3292   AU        0.465493    0.302366    0.622083     0.007504
PD3293   PD        0.466045    0.335188    0.654014     0.005394
PD3294   PD        0.498967    0.302395    0.653491     0.005394
AU3295   AU        0.500162    0.336283    0.621280     0.007504
AU3296   AU        0.531118    0.302886    0.622407     0.007504
PD3297   PD        0.531901    0.336202    0.655717     0.005394
AU3298   AU        0.567696    0.302941    0.654340     0.007504
PD3299   PD        0.564466    0.337772    0.620961     0.005394
AU3300   AU        0.601167    0.303756    0.622264     0.007504
PD3301   PD        0.600003    0.337444    0.653176     0.005394
PD3302   PD        0.631802    0.303613    0.653470     0.005394
AU3303   AU        0.634370    0.338319    0.620382     0.007504
PD3304   PD        0.665785    0.304284    0.623100     0.005394
AU3305   AU        0.667314    0.337447    0.654298     0.007504
AU3306   AU        0.699832    0.302569    0.654375     0.007504
PD3307   PD        0.701691    0.336204    0.621405     0.005394
AU3308   AU        0.730476    0.301726    0.622239     0.007504
AU3309   AU        0.732261    0.337042    0.654224     0.007504
PD3310   PD        0.766565    0.274039    0.687679     0.005394
AU3311   AU        0.765319    0.335861    0.621281     0.007504
AU3312   AU        0.134720    0.368619    0.620951     0.007504
PD3313   PD        0.133459    0.403494    0.652803     0.005394
PD3314   PD        0.168690    0.367713    0.654980     0.005394
AU3315   AU        0.167948    0.399260    0.621195     0.007504
AU3316   AU        0.202592    0.367407    0.622176     0.007504
AU3317   AU        0.201409    0.399138    0.655052     0.007504
AU3318   AU        0.233993    0.367578    0.655757     0.007504
AU3319   AU        0.235314    0.401459    0.622446     0.007504
AU3320   AU        0.266600    0.370447    0.621016     0.007504
PD3321   PD        0.267555    0.402924    0.653696     0.005394
AU3322   AU        0.300039    0.369929    0.656213     0.007504
AU3323   AU        0.299319    0.401588    0.620955     0.007504
AU3324   AU        0.333238    0.367545    0.621632     0.007504
AU3325   AU        0.332524    0.404265    0.653699     0.007504
AU3326   AU        0.365560    0.369097    0.654294     0.007504
PD3327   PD        0.365632    0.400816    0.621159     0.005394
AU3328   AU        0.398290    0.368955    0.621007     0.007504
AU3329   AU        0.399151    0.402079    0.655265     0.007504
AU3330   AU        0.432279    0.367371    0.654309     0.007504
AU3331   AU        0.432261    0.400845    0.622784     0.007504
PD3332   PD        0.466469    0.369906    0.623431     0.005394
AU3333   AU        0.465482    0.403634    0.655385     0.007504
PD3334   PD        0.499369    0.369191    0.655245     0.005394
AU3335   AU        0.499511    0.401785    0.622460     0.007504
AU3336   AU        0.531672    0.370464    0.620924     0.007504
AU3337   AU        0.534617    0.401693    0.654970     0.007504
PD3338   PD        0.566295    0.371085    0.656278     0.005394
PD3339   PD        0.566086    0.404517    0.622411     0.005394
PD3340   PD        0.600038    0.371630    0.622972     0.005394
PD3341   PD        0.600931    0.404719    0.656004     0.005394
PD3342   PD        0.635160    0.369295    0.654574     0.005394
AU3343   AU        0.634584    0.404107    0.623056     0.007504
PD3344   PD        0.667923    0.372160    0.621095     0.005394
PD3345   PD        0.667417    0.401467    0.655702     0.005394
AU3346   AU        0.700119    0.370526    0.653139     0.007504
PD3347   PD        0.702653    0.404205    0.619971     0.005394
PD3348   PD        0.735214    0.369262    0.618786     0.005394
AU3349   AU        0.733458    0.405199    0.653835     0.007504
AU3350   AU        0.764664    0.369143    0.653155     0.007504
PD3351   PD        0.766118    0.403918    0.621971     0.005394
AU3352   AU        0.800448    0.368416    0.618708     0.007504
PD3353   PD        0.795836    0.431025    0.689283     0.005394
AU3354   AU        0.134745    0.436793    0.621123     0.007504
PD3355   PD        0.131671    0.503540    0.684749     0.005394
AU3356   AU        0.168341    0.433934    0.652960     0.007504
AU3357   AU        0.167588    0.468308    0.620415     0.007504
AU3358   AU        0.201371    0.434151    0.621620     0.007504
AU3359   AU        0.203592    0.466903    0.652861     0.007504
PD3360   PD        0.234770    0.434728    0.654870     0.005394
PD3361   PD        0.234744    0.467466    0.622378     0.005394
PD3362   PD        0.267657    0.437208    0.618450     0.005394
AU3363   AU        0.267768    0.468308    0.655376     0.007504
PD3364   PD        0.298554    0.435702    0.652925     0.005394
AU3365   AU        0.299660    0.469840    0.621670     0.007504
AU3366   AU        0.332974    0.434987    0.621066     0.007504
AU3367   AU        0.332609    0.466713    0.653559     0.007504
PD3368   PD        0.366735    0.434737    0.650880     0.005394
AU3369   AU        0.366046    0.467642    0.619722     0.007504
AU3370   AU        0.399347    0.433640    0.622142     0.007504
AU3371   AU        0.398928    0.468012    0.652439     0.007504
PD3372   PD        0.433021    0.434530    0.653033     0.005394
AU3373   AU        0.433858    0.468185    0.619835     0.007504
AU3374   AU        0.465894    0.434647    0.619786     0.007504
PD3375   PD        0.465198    0.466690    0.654622     0.005394
AU3376   AU        0.499449    0.435034    0.655660     0.007504
PD3377   PD        0.500763    0.467903    0.617917     0.005394
AU3378   AU        0.532678    0.436977    0.620869     0.007504
PD3379   PD        0.535176    0.467805    0.655673     0.005394
PD3380   PD        0.567321    0.434519    0.654647     0.005394
AU3381   AU        0.567464    0.466534    0.621379     0.007504
PD3382   PD        0.602283    0.434757    0.622505     0.005394
AU3383   AU        0.599801    0.469385    0.656295     0.007504
PD3384   PD        0.633108    0.436440    0.657482     0.005394
AU3385   AU        0.634260    0.469650    0.620638     0.007504
PD3386   PD        0.666960    0.437157    0.620576     0.005394
AU3387   AU        0.666076    0.468183    0.652348     0.007504
PD3388   PD        0.698830    0.438679    0.654165     0.005394
PD3389   PD        0.698799    0.469125    0.619887     0.005394
PD3390   PD        0.732004    0.439562    0.621922     0.005394
PD3391   PD        0.731360    0.469695    0.653437     0.005394
AU3392   AU        0.764517    0.437488    0.654434     0.007504
AU3393   AU        0.765884    0.466879    0.620593     0.007504
PD3394   PD        0.800498    0.436081    0.618421     0.005394
PD3395   PD        0.832256    0.495870    0.723409     0.005394
AU3396   AU        0.136067    0.500663    0.619835     0.007504
AU3397   AU        0.170140    0.501024    0.651958     0.007504
AU3398   AU        0.168724    0.533727    0.620390     0.007504
AU3399   AU        0.201367    0.498965    0.620252     0.007504
AU3400   AU        0.200837    0.534598    0.654870     0.007504
AU3401   AU        0.236324    0.502531    0.653835     0.007504
AU3402   AU        0.232673    0.534282    0.622862     0.007504
AU3403   AU        0.267502    0.500024    0.621435     0.007504
AU3404   AU        0.267164    0.534119    0.655823     0.007504
PD3405   PD        0.298928    0.501218    0.654227     0.005394
AU3406   AU        0.299137    0.532222    0.622149     0.007504
PD3407   PD        0.334804    0.502532    0.620877     0.005394
AU3408   AU        0.333542    0.534087    0.654462     0.007504
AU3409   AU        0.366414    0.501489    0.654095     0.007504
PD3410   PD        0.369044    0.534133    0.619588     0.005394
AU3411   AU        0.401427    0.502091    0.621082     0.007504
AU3412   AU        0.399732    0.533733    0.654482     0.007504
AU3413   AU        0.433373    0.501040    0.655200     0.007504
PD3414   PD        0.433445    0.534992    0.622735     0.005394
PD3415   PD        0.466117    0.499621    0.620014     0.005394
PD3416   PD        0.467176    0.533671    0.654834     0.005394
PD3417   PD        0.499413    0.501627    0.654609     0.005394
AU3418   AU        0.501466    0.535279    0.620195     0.007504
PD3419   PD        0.533177    0.500546    0.622815     0.005394
AU3420   AU        0.534299    0.534301    0.652351     0.007504
PD3421   PD        0.567420    0.501861    0.652866     0.005394
AU3422   AU        0.566028    0.534315    0.620929     0.007504
AU3423   AU        0.601320    0.504902    0.620593     0.007504
AU3424   AU        0.598351    0.534966    0.655303     0.007504
PD3425   PD        0.632578    0.505261    0.653681     0.005394
PD3426   PD        0.636276    0.536377    0.620414     0.005394
AU3427   AU        0.666040    0.500359    0.620296     0.007504
AU3428   AU        0.666666    0.534574    0.653152     0.007504
AU3429   AU        0.700620    0.502441    0.654867     0.007504
AU3430   AU        0.697053    0.535777    0.619933     0.007504
AU3431   AU        0.732080    0.500731    0.620376     0.007504
AU3432   AU        0.733018    0.533569    0.650448     0.007504
PD3433   PD        0.768457    0.497986    0.651759     0.005394
AU3434   AU        0.766398    0.537048    0.621113     0.007504
PD3435   PD        0.800080    0.500233    0.619725     0.005394
AU3436   AU        0.169154    0.565798    0.653344     0.007504
AU3437   AU        0.168542    0.598727    0.620239     0.007504
AU3438   AU        0.201033    0.567111    0.620856     0.007504
AU3439   AU        0.200500    0.600720    0.654736     0.007504
AU3440   AU        0.233849    0.567389    0.654126     0.007504
AU3441   AU        0.231288    0.599939    0.621754     0.007504
AU3442   AU        0.268310    0.568167    0.620971     0.007504
PD3443   PD        0.267318    0.600973    0.656659     0.005394
AU3444   AU        0.299666    0.567425    0.656014     0.007504
PD3445   PD        0.303988    0.602588    0.623570     0.005394
PD3446   PD        0.332018    0.567056    0.622894     0.005394
PD3447   PD        0.334354    0.599124    0.657227     0.005394
AU3448   AU        0.365884    0.565935    0.655022     0.007504
PD3449   PD        0.364424    0.599219    0.623714     0.005394
AU3450   AU        0.398937    0.566909    0.621080     0.007504
AU3451   AU        0.401233    0.599226    0.654512     0.007504
AU3452   AU        0.434478    0.568691    0.654230     0.007504
PD3453   PD        0.432969    0.600123    0.619320     0.005394
PD3454   PD        0.467781    0.565275    0.622135     0.005394
AU3455   AU        0.467835    0.602920    0.651775     0.007504
AU3456   AU        0.500901    0.569275    0.652497     0.007504
AU3457   AU        0.499885    0.600379    0.620863     0.007504
AU3458   AU        0.532378    0.568396    0.621367     0.007504
PD3459   PD        0.532099    0.600719    0.653542     0.005394
PD3460   PD        0.567141    0.570593    0.651739     0.005394
AU3461   AU        0.566055    0.600755    0.621070     0.007504
AU3462   AU        0.601079    0.566261    0.620718     0.007504
PD3463   PD        0.599791    0.601964    0.653170     0.005394
PD3464   PD        0.632686    0.569297    0.655290     0.005394
PD3465   PD        0.633281    0.601756    0.620140     0.005394
PD3466   PD        0.665797    0.568155    0.621153     0.005394
PD3467   PD        0.663356    0.601533    0.652787     0.005394
AU3468   AU        0.700562    0.568040    0.653947     0.007504
AU3469   AU        0.696505    0.601051    0.621613     0.007504
AU3470   AU        0.731775    0.567871    0.619731     0.007504
PD3471   PD        0.733029    0.601494    0.653671     0.005394
PD3472   PD        0.799425    0.570938    0.686645     0.005394
PD3473   PD        0.769353    0.597827    0.619192     0.005394
PD3474   PD        0.198737    0.631637    0.622665     0.005394
AU3475   AU        0.231769    0.633005    0.655501     0.007504
AU3476   AU        0.234406    0.665969    0.623069     0.007504
PD3477   PD        0.266437    0.632641    0.625163     0.005394
PD3478   PD        0.267277    0.664712    0.655210     0.005394
AU3479   AU        0.302409    0.633591    0.656707     0.007504
AU3480   AU        0.298539    0.667130    0.621063     0.007504
PD3481   PD        0.332432    0.632841    0.620344     0.005394
PD3482   PD        0.331780    0.666024    0.654838     0.005394
AU3483   AU        0.365328    0.632930    0.652876     0.007504
PD3484   PD        0.367118    0.669031    0.618720     0.005394
AU3485   AU        0.400021    0.634520    0.621677     0.007504
PD3486   PD        0.397525    0.669140    0.654367     0.005394
PD3487   PD        0.434586    0.634458    0.654191     0.005394
AU3488   AU        0.432775    0.667591    0.622336     0.007504
AU3489   AU        0.465404    0.633323    0.618782     0.007504
AU3490   AU        0.467119    0.668723    0.654048     0.007504
AU3491   AU        0.500433    0.634858    0.653417     0.007504
AU3492   AU        0.499926    0.667130    0.622609     0.007504
AU3493   AU        0.534278    0.635051    0.620705     0.007504
PD3494   PD        0.531517    0.669813    0.655640     0.005394
PD3495   PD        0.568024    0.634719    0.654411     0.005394
AU3496   AU        0.565745    0.667706    0.620865     0.007504
AU3497   AU        0.601474    0.634856    0.621913     0.007504
PD3498   PD        0.600099    0.668339    0.654816     0.005394
PD3499   PD        0.634270    0.631351    0.654698     0.005394
PD3500   PD        0.633425    0.669729    0.621159     0.005394
PD3501   PD        0.666172    0.637098    0.621906     0.005394
PD3502   PD        0.663445    0.668477    0.655388     0.005394
PD3503   PD        0.699163    0.635894    0.655265     0.005394
AU3504   AU        0.699371    0.666944    0.619330     0.007504
PD3505   PD        0.735260    0.634996    0.619951     0.005394
PD3506   PD        0.265399    0.700236    0.622470     0.005394
PD3507   PD        0.301827    0.697274    0.655430     0.005394
AU3508   AU        0.297871    0.732237    0.621710     0.007504
PD3509   PD        0.334060    0.698866    0.620186     0.005394
PD3510   PD        0.332960    0.735054    0.653526     0.005394
PD3511   PD        0.367019    0.699011    0.652948     0.005394
AU3512   AU        0.367868    0.735145    0.619078     0.007504
AU3513   AU        0.400389    0.700429    0.618048     0.007504
AU3514   AU        0.401237    0.734225    0.653913     0.007504
AU3515   AU        0.432441    0.700237    0.653993     0.007504
PD3516   PD        0.432585    0.732661    0.622691     0.005394
AU3517   AU        0.464322    0.701938    0.621649     0.007504
AU3518   AU        0.465668    0.733821    0.653110     0.007504
PD3519   PD        0.499233    0.701067    0.651800     0.005394
PD3520   PD        0.499716    0.733451    0.620737     0.005394
PD3521   PD        0.529587    0.701165    0.619241     0.005394
PD3522   PD        0.535188    0.735514    0.655557     0.005394
AU3523   AU        0.564949    0.699344    0.653587     0.007504
AU3524   AU        0.564996    0.733462    0.621182     0.007504
AU3525   AU        0.598652    0.699062    0.619739     0.007504
PD3526   PD        0.603212    0.734405    0.655734     0.005394
PD3527   PD        0.636849    0.698160    0.652301     0.005394
PD3528   PD        0.598187    0.767453    0.621826     0.005394
AU3529   AU        0.665328    0.702526    0.618267     0.007504
AU3530   AU        0.404175    0.767950    0.618218     0.007504
AU3531   AU        0.435589    0.768242    0.653655     0.007504
PD3532   PD        0.467304    0.764661    0.619284     0.005394
AU3533   AU        0.497635    0.768076    0.654288     0.007504
PD3534   PD        0.532270    0.769208    0.620305     0.005394
PD3535   PD        0.432644    0.135128    0.685332     0.005394
PD3536   PD        0.464137    0.138794    0.717790     0.005394
AU3537   AU        0.300858    0.201715    0.688272     0.007504
AU3538   AU        0.333927    0.167782    0.687150     0.007504
AU3539   AU        0.331582    0.202509    0.720244     0.007504
AU3540   AU        0.365850    0.202544    0.687809     0.007504
PD3541   PD        0.396067    0.167172    0.687600     0.005394
PD3542   PD        0.404377    0.168253    0.753278     0.005394
PD3543   PD        0.403569    0.135524    0.719273     0.005394
PD3544   PD        0.431876    0.201620    0.689781     0.005394
AU3545   AU        0.463817    0.170311    0.685974     0.007504
PD3546   PD        0.465930    0.202962    0.722030     0.005394
PD3547   PD        0.544048    0.160777    0.735787     0.005394
AU3548   AU        0.498894    0.201466    0.687984     0.007504
AU3549   AU        0.532657    0.168294    0.685935     0.007504
AU3550   AU        0.533100    0.201099    0.718502     0.007504
PD3551   PD        0.567647    0.201331    0.689968     0.005394
PD3552   PD        0.603600    0.134390    0.719107     0.005394
PD3553   PD        0.596937    0.200456    0.716223     0.005394
PD3554   PD        0.635547    0.203515    0.688054     0.005394
PD3555   PD        0.233135    0.270613    0.688797     0.005394
AU3556   AU        0.267799    0.235364    0.687268     0.007504
AU3557   AU        0.268200    0.267529    0.720507     0.007504
PD3558   PD        0.299282    0.232880    0.718881     0.005394
AU3559   AU        0.302073    0.269380    0.687892     0.007504
AU3560   AU        0.332770    0.235284    0.687039     0.007504
PD3561   PD        0.332806    0.271598    0.721492     0.005394
AU3562   AU        0.364738    0.233895    0.721970     0.007504
AU3563   AU        0.365747    0.270781    0.688068     0.007504
PD3564   PD        0.399107    0.234786    0.689277     0.005394
AU3565   AU        0.396474    0.268931    0.720268     0.007504
PD3566   PD        0.431562    0.232370    0.721381     0.005394
PD3567   PD        0.428335    0.267163    0.687572     0.005394
PD3568   PD        0.467726    0.238878    0.689904     0.005394
PD3569   PD        0.467687    0.270174    0.721401     0.005394
PD3570   PD        0.505038    0.235401    0.722121     0.005394
AU3571   AU        0.501588    0.269720    0.687797     0.007504
PD3572   PD        0.535570    0.233059    0.684582     0.005394
PD3573   PD        0.533996    0.268696    0.719127     0.005394
PD3574   PD        0.565464    0.236440    0.723352     0.005394
AU3575   AU        0.566470    0.268888    0.685458     0.007504
AU3576   AU        0.599941    0.236178    0.688698     0.007504
PD3577   PD        0.599672    0.267376    0.723202     0.005394
PD3578   PD        0.634510    0.235895    0.719971     0.005394
AU3579   AU        0.633062    0.270761    0.686764     0.007504
PD3580   PD        0.669753    0.237321    0.691634     0.005394
PD3581   PD        0.662673    0.271362    0.721714     0.005394
AU3582   AU        0.701679    0.270237    0.686866     0.007504
PD3583   PD        0.204029    0.302594    0.689384     0.005394
PD3584   PD        0.234678    0.301419    0.724805     0.005394
AU3585   AU        0.236461    0.334983    0.689874     0.007504
AU3586   AU        0.268076    0.301216    0.689526     0.007504
AU3587   AU        0.268110    0.334643    0.723056     0.007504
PD3588   PD        0.300577    0.303141    0.721783     0.005394
AU3589   AU        0.299315    0.335936    0.688864     0.007504
PD3590   PD        0.333804    0.303981    0.688147     0.005394
AU3591   AU        0.332640    0.336042    0.722261     0.007504
AU3592   AU        0.366989    0.302205    0.720446     0.007504
AU3593   AU        0.364512    0.336827    0.687543     0.007504
AU3594   AU        0.399378    0.302509    0.688674     0.007504
AU3595   AU        0.398027    0.335608    0.721706     0.007504
AU3596   AU        0.433752    0.301275    0.721472     0.007504
PD3597   PD        0.428870    0.335779    0.687831     0.005394
AU3598   AU        0.465550    0.299099    0.687169     0.007504
AU3599   AU        0.464590    0.337447    0.719702     0.007504
AU3600   AU        0.499721    0.303080    0.720630     0.007504
PD3601   PD        0.498367    0.335381    0.688132     0.005394
PD3602   PD        0.532616    0.302274    0.688565     0.005394
PD3603   PD        0.533315    0.334639    0.720961     0.005394
AU3604   AU        0.564234    0.302079    0.720301     0.007504
PD3605   PD        0.564165    0.336205    0.687294     0.005394
AU3606   AU        0.598171    0.302627    0.687588     0.007504
PD3607   PD        0.601938    0.337920    0.717698     0.005394
AU3608   AU        0.630761    0.303366    0.721061     0.007504
PD3609   PD        0.631730    0.336021    0.683943     0.005394
PD3610   PD        0.669049    0.302101    0.688838     0.005394
PD3611   PD        0.666100    0.335030    0.719452     0.005394
PD3612   PD        0.699492    0.299051    0.720648     0.005394
AU3613   AU        0.698982    0.337808    0.686790     0.007504
AU3614   AU        0.732478    0.304076    0.687397     0.007504
PD3615   PD        0.167854    0.401636    0.686136     0.005394
PD3616   PD        0.201463    0.369471    0.688707     0.005394
PD3617   PD        0.202347    0.400938    0.724230     0.005394
AU3618   AU        0.234784    0.369204    0.722044     0.007504
AU3619   AU        0.232818    0.402299    0.688477     0.007504
AU3620   AU        0.267860    0.370615    0.688958     0.007504
AU3621   AU        0.265418    0.403196    0.720202     0.007504
AU3622   AU        0.300033    0.369392    0.720785     0.007504
AU3623   AU        0.300080    0.401800    0.688099     0.007504
AU3624   AU        0.332397    0.368398    0.686456     0.007504
AU3625   AU        0.332457    0.399565    0.720961     0.007504
AU3626   AU        0.365056    0.368435    0.721777     0.007504
AU3627   AU        0.365529    0.402051    0.686820     0.007504
PD3628   PD        0.397498    0.367738    0.687875     0.005394
PD3629   PD        0.397541    0.400260    0.722624     0.005394
PD3630   PD        0.430925    0.369135    0.721400     0.005394
PD3631   PD        0.430131    0.401576    0.689420     0.005394
PD3632   PD        0.466394    0.370909    0.686384     0.005394
PD3633   PD        0.464512    0.401499    0.720534     0.005394
AU3634   AU        0.499260    0.367446    0.722948     0.007504
PD3635   PD        0.500509    0.402499    0.689758     0.005394
AU3636   AU        0.532157    0.370315    0.689782     0.007504
AU3637   AU        0.532081    0.403130    0.720790     0.007504
AU3638   AU        0.568661    0.369996    0.721002     0.007504
PD3639   PD        0.565862    0.403339    0.690468     0.005394
AU3640   AU        0.602188    0.369682    0.685652     0.007504
AU3641   AU        0.601496    0.402212    0.720597     0.007504
AU3642   AU        0.633708    0.368416    0.720082     0.007504
AU3643   AU        0.635123    0.402683    0.688690     0.007504
AU3644   AU        0.668519    0.371373    0.687028     0.007504
AU3645   AU        0.667419    0.403567    0.720176     0.007504
AU3646   AU        0.699880    0.370916    0.720454     0.007504
AU3647   AU        0.700041    0.404903    0.685880     0.007504
AU3648   AU        0.732957    0.369591    0.687714     0.007504
PD3649   PD        0.732030    0.402359    0.719136     0.005394
PD3650   PD        0.766332    0.402606    0.685654     0.005394
PD3651   PD        0.170181    0.468432    0.683260     0.005394
PD3652   PD        0.200302    0.433905    0.689087     0.005394
PD3653   PD        0.199795    0.467426    0.719403     0.005394
PD3654   PD        0.232946    0.432603    0.719574     0.005394
AU3655   AU        0.234218    0.470131    0.688493     0.007504
AU3656   AU        0.266688    0.434357    0.686375     0.007504
AU3657   AU        0.267950    0.467567    0.720259     0.007504
PD3658   PD        0.299080    0.434127    0.718887     0.005394
PD3659   PD        0.300078    0.467182    0.684705     0.005394
AU3660   AU        0.331482    0.434466    0.687175     0.007504
PD3661   PD        0.330426    0.469408    0.720004     0.005394
PD3662   PD        0.365995    0.435695    0.720338     0.005394
AU3663   AU        0.364860    0.466751    0.687235     0.007504
PD3664   PD        0.396719    0.436852    0.691157     0.005394
PD3665   PD        0.400277    0.470936    0.723593     0.005394
AU3666   AU        0.433872    0.437602    0.721461     0.007504
PD3667   PD        0.433097    0.467446    0.687463     0.005394
PD3668   PD        0.466698    0.434745    0.689109     0.005394
PD3669   PD        0.466521    0.471555    0.722835     0.005394
PD3670   PD        0.495979    0.435556    0.721407     0.005394
PD3671   PD        0.498537    0.469192    0.688032     0.005394
AU3672   AU        0.531560    0.435441    0.689007     0.007504
PD3673   PD        0.530897    0.467943    0.722257     0.005394
AU3674   AU        0.566789    0.436284    0.719670     0.007504
PD3675   PD        0.567972    0.468732    0.687097     0.005394
AU3676   AU        0.601025    0.435143    0.689342     0.007504
PD3677   PD        0.601693    0.470405    0.719791     0.005394
AU3678   AU        0.635040    0.437385    0.720945     0.007504
AU3679   AU        0.633764    0.470165    0.686520     0.007504
AU3680   AU        0.666069    0.435717    0.686742     0.007504
PD3681   PD        0.666672    0.470102    0.719857     0.005394
PD3682   PD        0.698072    0.435530    0.720680     0.005394
PD3683   PD        0.699445    0.468977    0.690695     0.005394
AU3684   AU        0.732924    0.437912    0.688299     0.007504
AU3685   AU        0.732955    0.471433    0.722820     0.007504
PD3686   PD        0.765213    0.468871    0.686111     0.005394
PD3687   PD        0.201409    0.499905    0.685503     0.005394
AU3688   AU        0.234162    0.501621    0.721166     0.007504
PD3689   PD        0.232928    0.533273    0.690283     0.005394
PD3690   PD        0.268861    0.498915    0.687406     0.005394
AU3691   AU        0.268619    0.534562    0.720699     0.007504
AU3692   AU        0.301039    0.501950    0.720656     0.007504
AU3693   AU        0.299941    0.535170    0.687074     0.007504
AU3694   AU        0.331487    0.501675    0.686353     0.007504
AU3695   AU        0.332110    0.533800    0.721044     0.007504
PD3696   PD        0.363021    0.498824    0.721251     0.005394
AU3697   AU        0.364916    0.533784    0.687947     0.007504
AU3698   AU        0.397541    0.499747    0.689970     0.007504
PD3699   PD        0.397032    0.535042    0.722110     0.005394
AU3700   AU        0.431214    0.502216    0.719189     0.007504
AU3701   AU        0.433827    0.535400    0.686022     0.007504
PD3702   PD        0.468071    0.502147    0.686890     0.005394
AU3703   AU        0.468369    0.536435    0.719443     0.007504
PD3704   PD        0.500401    0.503184    0.721947     0.005394
AU3705   AU        0.500227    0.534779    0.688544     0.007504
PD3706   PD        0.534406    0.499470    0.690215     0.005394
PD3707   PD        0.532058    0.534879    0.719482     0.005394
PD3708   PD        0.566095    0.499862    0.722148     0.005394
PD3709   PD        0.565394    0.534413    0.688497     0.005394
PD3710   PD        0.598898    0.503897    0.688381     0.005394
AU3711   AU        0.599742    0.536627    0.720696     0.007504
AU3712   AU        0.632657    0.504473    0.720029     0.007504
AU3713   AU        0.633627    0.534605    0.686598     0.007504
AU3714   AU        0.665812    0.501002    0.686041     0.007504
AU3715   AU        0.666943    0.535394    0.718042     0.007504
PD3716   PD        0.703399    0.504742    0.722326     0.005394
AU3717   AU        0.699926    0.535302    0.686466     0.007504
PD3718   PD        0.733922    0.501209    0.685055     0.005394
PD3719   PD        0.200981    0.566169    0.687551     0.005394
AU3720   AU        0.233532    0.568233    0.720620     0.007504
AU3721   AU        0.232845    0.600082    0.685986     0.007504
AU3722   AU        0.264462    0.566480    0.687528     0.007504
PD3723   PD        0.267693    0.599920    0.722020     0.005394
AU3724   AU        0.300751    0.567590    0.720009     0.007504
AU3725   AU        0.299788    0.600489    0.688455     0.007504
AU3726   AU        0.333409    0.566886    0.687498     0.007504
AU3727   AU        0.333775    0.599467    0.720728     0.007504
PD3728   PD        0.367261    0.567013    0.721785     0.005394
AU3729   AU        0.366433    0.600329    0.687480     0.007504
PD3730   PD        0.398332    0.565084    0.690198     0.005394
PD3731   PD        0.400091    0.600967    0.719166     0.005394
PD3732   PD        0.432123    0.564730    0.719348     0.005394
PD3733   PD        0.432303    0.599270    0.689821     0.005394
PD3734   PD        0.467546    0.569418    0.685101     0.005394
AU3735   AU        0.466220    0.601055    0.717995     0.007504
PD3736   PD        0.502462    0.567220    0.719129     0.005394
AU3737   AU        0.499412    0.602716    0.687675     0.007504
PD3738   PD        0.533677    0.569068    0.686674     0.005394
AU3739   AU        0.530819    0.601785    0.719067     0.007504
AU3740   AU        0.566892    0.568308    0.719447     0.007504
AU3741   AU        0.566487    0.601276    0.685188     0.007504
AU3742   AU        0.599962    0.567094    0.687386     0.007504
AU3743   AU        0.599065    0.600376    0.721600     0.007504
AU3744   AU        0.634443    0.567612    0.719560     0.007504
AU3745   AU        0.630843    0.601327    0.689793     0.007504
AU3746   AU        0.665891    0.568943    0.685516     0.007504
PD3747   PD        0.668644    0.602605    0.718458     0.005394
PD3748   PD        0.732674    0.604398    0.715351     0.005394
PD3749   PD        0.699027    0.603609    0.685906     0.005394
PD3750   PD        0.731187    0.568408    0.684619     0.005394
AU3751   AU        0.267121    0.633248    0.688549     0.007504
AU3752   AU        0.300164    0.633540    0.720895     0.007504
PD3753   PD        0.296154    0.669069    0.689388     0.005394
AU3754   AU        0.333176    0.633609    0.690036     0.007504
AU3755   AU        0.331025    0.667885    0.721142     0.007504
PD3756   PD        0.364941    0.631039    0.721364     0.005394
PD3757   PD        0.365368    0.665014    0.688279     0.005394
PD3758   PD        0.401114    0.632466    0.686824     0.005394
AU3759   AU        0.398808    0.667949    0.719327     0.007504
PD3760   PD        0.431874    0.633185    0.718250     0.005394
PD3761   PD        0.432024    0.668267    0.684995     0.005394
AU3762   AU        0.465205    0.633915    0.686652     0.007504
AU3763   AU        0.466144    0.666591    0.720421     0.007504
AU3764   AU        0.498961    0.635844    0.718504     0.007504
AU3765   AU        0.499286    0.666989    0.685389     0.007504
AU3766   AU        0.532475    0.632935    0.687800     0.007504
PD3767   PD        0.533056    0.667435    0.718786     0.005394
PD3768   PD        0.565526    0.631523    0.717687     0.005394
PD3769   PD        0.565059    0.666481    0.687850     0.005394
PD3770   PD        0.596696    0.634501    0.692392     0.005394
PD3771   PD        0.602227    0.671552    0.721683     0.005394
PD3772   PD        0.599087    0.633802    0.751719     0.005394
PD3773   PD        0.633472    0.667620    0.689979     0.005394
PD3774   PD        0.664948    0.634106    0.688082     0.005394
PD3775   PD        0.332069    0.699484    0.687187     0.005394
PD3776   PD        0.399749    0.702468    0.689475     0.005394
PD3777   PD        0.432583    0.696589    0.718517     0.005394
PD3778   PD        0.435928    0.734336    0.687777     0.005394
AU3779   AU        0.465896    0.699452    0.687534     0.007504
PD3780   PD        0.500530    0.702108    0.719882     0.005394
PD3781   PD        0.497825    0.733939    0.685855     0.005394
AU3782   AU        0.532708    0.704040    0.686498     0.007504
AU3783   AU        0.566320    0.701258    0.717482     0.007504
PD3784   PD        0.434657    0.200600    0.755340     0.005394
PD3785   PD        0.496968    0.201894    0.752942     0.005394
PD3786   PD        0.300031    0.264754    0.750935     0.005394
AU3787   AU        0.364426    0.268546    0.753217     0.007504
PD3788   PD        0.398253    0.240225    0.756535     0.005394
PD3789   PD        0.364004    0.269456    0.818386     0.005394
AU3790   AU        0.432022    0.270685    0.756821     0.007504
AU3791   AU        0.464657    0.238130    0.751529     0.007504
PD3792   PD        0.465374    0.269567    0.786815     0.005394
AU3793   AU        0.498817    0.269441    0.755203     0.007504
PD3794   PD        0.531038    0.234644    0.753555     0.005394
PD3795   PD        0.530828    0.269451    0.786125     0.005394
PD3796   PD        0.565366    0.272353    0.756195     0.005394
PD3797   PD        0.633150    0.271965    0.754185     0.005394
AU3798   AU        0.301243    0.335111    0.755386     0.007504
AU3799   AU        0.333651    0.302218    0.753559     0.007504
PD3800   PD        0.334194    0.337938    0.786057     0.005394
PD3801   PD        0.366729    0.303021    0.785705     0.005394
AU3802   AU        0.365337    0.335742    0.754085     0.007504
AU3803   AU        0.399715    0.302556    0.753917     0.007504
PD3804   PD        0.398675    0.334448    0.787415     0.005394
PD3805   PD        0.432903    0.304030    0.789400     0.005394
AU3806   AU        0.432516    0.335031    0.755037     0.007504
AU3807   AU        0.466582    0.303040    0.753304     0.007504
AU3808   AU        0.466611    0.336789    0.785596     0.007504
PD3809   PD        0.500643    0.303910    0.784444     0.005394
PD3810   PD        0.498329    0.337224    0.753562     0.005394
PD3811   PD        0.531013    0.302556    0.751521     0.005394
PD3812   PD        0.535077    0.338311    0.788511     0.005394
PD3813   PD        0.581683    0.309455    0.858127     0.005394
PD3814   PD        0.568472    0.337494    0.754261     0.005394
AU3815   AU        0.598460    0.302117    0.752551     0.007504
PD3816   PD        0.598627    0.337709    0.787119     0.005394
PD3817   PD        0.631043    0.336751    0.750246     0.005394
PD3818   PD        0.231821    0.404884    0.752886     0.005394
PD3819   PD        0.267747    0.370393    0.754230     0.005394
PD3820   PD        0.299801    0.371097    0.786025     0.005394
PD3821   PD        0.302769    0.402213    0.751317     0.005394
AU3822   AU        0.332356    0.369242    0.753912     0.007504
AU3823   AU        0.332376    0.403180    0.787254     0.007504
AU3824   AU        0.365990    0.368009    0.786139     0.007504
AU3825   AU        0.364985    0.401450    0.755031     0.007504
AU3826   AU        0.399242    0.367494    0.755399     0.007504
AU3827   AU        0.397995    0.400375    0.786489     0.007504
PD3828   PD        0.433280    0.369218    0.788119     0.005394
AU3829   AU        0.430214    0.400891    0.753810     0.007504
PD3830   PD        0.464086    0.371215    0.755259     0.005394
PD3831   PD        0.466484    0.402648    0.787464     0.005394
PD3832   PD        0.499110    0.370180    0.784041     0.005394
PD3833   PD        0.499761    0.402613    0.755626     0.005394
AU3834   AU        0.534322    0.368065    0.754184     0.007504
PD3835   PD        0.533708    0.401484    0.785826     0.005394
PD3836   PD        0.566929    0.371574    0.786827     0.005394
AU3837   AU        0.566438    0.402917    0.752879     0.007504
AU3838   AU        0.599239    0.371071    0.753246     0.007504
AU3839   AU        0.602349    0.401451    0.786643     0.007504
PD3840   PD        0.633713    0.367476    0.784171     0.005394
AU3841   AU        0.633835    0.402735    0.753256     0.007504
PD3842   PD        0.667771    0.369318    0.753524     0.005394
PD3843   PD        0.697951    0.403282    0.755714     0.005394
AU3844   AU        0.233930    0.468436    0.751716     0.007504
AU3845   AU        0.266302    0.435557    0.751528     0.007504
PD3846   PD        0.301397    0.434705    0.786277     0.005394
PD3847   PD        0.300997    0.467312    0.752816     0.005394
AU3848   AU        0.331918    0.433955    0.753439     0.007504
AU3849   AU        0.333230    0.467435    0.787885     0.007504
PD3850   PD        0.365327    0.434956    0.787962     0.005394
AU3851   AU        0.366068    0.467096    0.754361     0.007504
PD3852   PD        0.401053    0.434956    0.756203     0.005394
PD3853   PD        0.399710    0.470232    0.785849     0.005394
AU3854   AU        0.433253    0.435765    0.788010     0.007504
AU3855   AU        0.431976    0.469203    0.754089     0.007504
AU3856   AU        0.464302    0.434767    0.755012     0.007504
PD3857   PD        0.466295    0.472300    0.786610     0.005394
PD3858   PD        0.497390    0.432957    0.787358     0.005394
AU3859   AU        0.501112    0.467741    0.754938     0.007504
AU3860   AU        0.534545    0.434863    0.752267     0.007504
AU3861   AU        0.534506    0.468787    0.786365     0.007504
PD3862   PD        0.567796    0.435774    0.786417     0.005394
AU3863   AU        0.566669    0.469875    0.752322     0.007504
AU3864   AU        0.600274    0.436127    0.752347     0.007504
PD3865   PD        0.597590    0.468172    0.787668     0.005394
PD3866   PD        0.632751    0.437816    0.785928     0.005394
AU3867   AU        0.632750    0.469420    0.753801     0.007504
PD3868   PD        0.664380    0.437310    0.752610     0.005394
PD3869   PD        0.666782    0.467993    0.786188     0.005394
PD3870   PD        0.268009    0.500598    0.751919     0.005394
PD3871   PD        0.299170    0.499247    0.783905     0.005394
AU3872   AU        0.299292    0.534297    0.754773     0.007504
AU3873   AU        0.332060    0.500440    0.753852     0.007504
AU3874   AU        0.333434    0.536048    0.785082     0.007504
AU3875   AU        0.363976    0.499466    0.786671     0.007504
PD3876   PD        0.366934    0.535921    0.755698     0.005394
PD3877   PD        0.398720    0.501793    0.752975     0.005394
PD3878   PD        0.400852    0.530988    0.855109     0.005394
AU3879   AU        0.430104    0.503493    0.785804     0.007504
PD3880   PD        0.434320    0.535197    0.752578     0.005394
AU3881   AU        0.467033    0.501008    0.750732     0.007504
PD3882   PD        0.466013    0.533788    0.781575     0.005394
AU3883   AU        0.501101    0.502107    0.785587     0.007504
AU3884   AU        0.500006    0.536701    0.752930     0.007504
PD3885   PD        0.534058    0.502490    0.752273     0.005394
AU3886   AU        0.530260    0.537649    0.786248     0.007504
AU3887   AU        0.565414    0.502887    0.783510     0.007504
PD3888   PD        0.566285    0.537054    0.753946     0.005394
PD3889   PD        0.601532    0.502356    0.754419     0.005394
PD3890   PD        0.597690    0.534297    0.786613     0.005394
PD3891   PD        0.632187    0.501450    0.786167     0.005394
PD3892   PD        0.635811    0.536853    0.753839     0.005394
AU3893   AU        0.664842    0.502451    0.753204     0.007504
PD3894   PD        0.346606    0.661775    0.763103     0.005394
AU3895   AU        0.333884    0.567574    0.754061     0.007504
PD3896   PD        0.364859    0.567378    0.788322     0.005394
AU3897   AU        0.367089    0.599731    0.752859     0.007504
AU3898   AU        0.401229    0.569590    0.753812     0.007504
PD3899   PD        0.396862    0.601148    0.789829     0.005394
PD3900   PD        0.429532    0.537136    0.823375     0.005394
PD3901   PD        0.434554    0.600264    0.753608     0.005394
PD3902   PD        0.465938    0.569136    0.751950     0.005394
PD3903   PD        0.527693    0.666674    0.858013     0.005394
AU3904   AU        0.497375    0.568137    0.786575     0.007504
AU3905   AU        0.499596    0.602677    0.752204     0.007504
AU3906   AU        0.531899    0.570052    0.753579     0.007504
PD3907   PD        0.570771    0.621421    0.800109     0.005394
PD3908   PD        0.581733    0.579396    0.831429     0.005394
PD3909   PD        0.564419    0.600420    0.753707     0.005394
PD3910   PD        0.601971    0.568187    0.752661     0.005394
PD3911   PD        0.637086    0.600035    0.750447     0.005394
AU3912   AU        0.398862    0.631305    0.752692     0.007504
PD3913   PD        0.466646    0.700157    0.750496     0.005394
AU3914   AU        0.467167    0.634692    0.753714     0.007504
PD3915   PD        0.500108    0.668837    0.750534     0.005394
PD3916   PD        0.532548    0.633352    0.757091     0.005394
PD3917   PD        0.430425    0.399547    0.820758     0.005394
PD3918   PD        0.464328    0.367180    0.821506     0.005394
PD3919   PD        0.496724    0.401377    0.823700     0.005394
AU3920   AU        0.398807    0.434432    0.820172     0.007504
PD3921   PD        0.354047    0.463048    0.884730     0.005394
PD3922   PD        0.468608    0.415807    0.848454     0.005394
PD3923   PD        0.496081    0.467159    0.816497     0.005394
PD3924   PD        0.533556    0.434033    0.819510     0.005394
PD3925   PD        0.464833    0.503501    0.818814     0.005394
