data_00001
_audit_creation_method   'DISCUS'

_data_chemical_name_common 'Au.cell: Pearson 85'

_cell_length_a             61.1835
_cell_length_b             57.1046
_cell_length_c             61.1835
_cell_angle_alpha     90.0000
_cell_angle_beta      90.0000
_cell_angle_gamma     90.0000

_symmetry_space_group_name_H-M   'P1              '

loop_
_atom_site_label
_atom_site_symbol
_atom_site_fract_x
_atom_site_fract_y
_atom_site_fract_z
_atom_site_u_iso_or_equiv
PD1   PD        0.400697    0.288117    0.096314     0.005394
PD2   PD        0.501273    0.255370    0.096066     0.005394
PD3   PD        0.532800    0.289314    0.092303     0.005394
PD4   PD        0.334952    0.362288    0.097680     0.005394
PD5   PD        0.369244    0.323918    0.096908     0.005394
PD6   PD        0.402605    0.362780    0.095836     0.005394
PD7   PD        0.433789    0.324141    0.096908     0.005394
AU8   AU        0.466715    0.362017    0.093934     0.007504
PD9   PD        0.494282    0.322420    0.028155     0.005394
PD10   PD        0.536430    0.361165    0.094290     0.005394
PD11   PD        0.569573    0.325726    0.094998     0.005394
AU12   AU        0.602458    0.359087    0.096472     0.007504
PD13   PD        0.300421    0.401537    0.094494     0.005394
AU14   AU        0.335465    0.433361    0.096523     0.007504
PD15   PD        0.368376    0.398382    0.093567     0.005394
AU16   AU        0.401237    0.434325    0.096132     0.007504
PD17   PD        0.436838    0.395295    0.095619     0.005394
AU18   AU        0.436729    0.432055    0.064090     0.007504
PD19   PD        0.466828    0.396335    0.059168     0.005394
AU20   AU        0.469789    0.432183    0.096914     0.007504
AU21   AU        0.498789    0.397097    0.096428     0.007504
PD22   PD        0.499668    0.429887    0.063344     0.005394
PD23   PD        0.534461    0.428754    0.095488     0.005394
PD24   PD        0.569839    0.396129    0.097559     0.005394
AU25   AU        0.601523    0.432878    0.095536     0.007504
AU26   AU        0.633765    0.397910    0.095960     0.007504
AU27   AU        0.302266    0.466133    0.095821     0.007504
PD28   PD        0.335472    0.501419    0.096719     0.005394
AU29   AU        0.369983    0.468773    0.096044     0.007504
PD30   PD        0.406808    0.469616    0.059882     0.005394
AU31   AU        0.404499    0.502683    0.095325     0.007504
AU32   AU        0.435954    0.467382    0.094445     0.007504
PD33   PD        0.439281    0.502526    0.063862     0.005394
PD34   PD        0.425381    0.535844    0.019124     0.005394
PD35   PD        0.470513    0.499658    0.095818     0.005394
PD36   PD        0.504822    0.466549    0.097023     0.005394
PD37   PD        0.499109    0.500969    0.060607     0.005394
PD38   PD        0.535479    0.462947    0.062825     0.005394
AU39   AU        0.533410    0.502821    0.095598     0.007504
PD40   PD        0.569733    0.470641    0.097885     0.005394
AU41   AU        0.601579    0.505352    0.096284     0.007504
PD42   PD        0.636198    0.469943    0.096773     0.005394
PD43   PD        0.310124    0.546323    0.092159     0.005394
PD44   PD        0.286142    0.579094    0.000667     0.005394
PD45   PD        0.368688    0.537569    0.097395     0.005394
PD46   PD        0.402817    0.536138    0.059971     0.005394
AU47   AU        0.437191    0.540393    0.094055     0.007504
PD48   PD        0.469313    0.539168    0.062785     0.005394
PD49   PD        0.469864    0.573884    0.095364     0.005394
AU50   AU        0.501170    0.538527    0.096679     0.007504
PD51   PD        0.532841    0.574190    0.098496     0.005394
PD52   PD        0.565689    0.538495    0.094006     0.005394
AU53   AU        0.602510    0.571414    0.096250     0.007504
AU54   AU        0.706621    0.538426    0.095402     0.007504
PD55   PD        0.367629    0.612030    0.098452     0.005394
PD56   PD        0.405610    0.718288    0.092776     0.005394
PD57   PD        0.436503    0.612240    0.096320     0.005394
PD58   PD        0.472861    0.648719    0.093189     0.005394
AU59   AU        0.503434    0.609421    0.096533     0.007504
PD60   PD        0.536782    0.645719    0.097722     0.005394
PD61   PD        0.598783    0.581908    0.037277     0.005394
PD62   PD        0.333310    0.219937    0.160431     0.005394
AU63   AU        0.402452    0.219467    0.163160     0.007504
PD64   PD        0.434458    0.187162    0.162782     0.005394
PD65   PD        0.368352    0.221241    0.064845     0.005394
AU66   AU        0.467821    0.221332    0.161512     0.007504
PD67   PD        0.501297    0.185891    0.159153     0.005394
AU68   AU        0.503352    0.221863    0.130481     0.007504
AU69   AU        0.536650    0.219277    0.163231     0.007504
PD70   PD        0.600704    0.220887    0.158716     0.005394
PD71   PD        0.268942    0.289325    0.158414     0.005394
PD72   PD        0.302288    0.257949    0.162296     0.005394
PD73   PD        0.304985    0.291679    0.126750     0.005394
AU74   AU        0.337853    0.289688    0.163859     0.007504
PD75   PD        0.368523    0.253533    0.161387     0.005394
PD76   PD        0.369024    0.291596    0.127898     0.005394
AU77   AU        0.402101    0.252453    0.129196     0.007504
AU78   AU        0.401850    0.289973    0.161912     0.007504
AU79   AU        0.435827    0.256008    0.161729     0.007504
AU80   AU        0.434588    0.290072    0.130106     0.007504
AU81   AU        0.467212    0.255127    0.127445     0.007504
PD82   PD        0.466384    0.292452    0.161594     0.005394
AU83   AU        0.502019    0.255086    0.161871     0.007504
AU84   AU        0.501405    0.290482    0.130286     0.007504
AU85   AU        0.535360    0.254793    0.129753     0.007504
AU86   AU        0.533916    0.291094    0.162940     0.007504
AU87   AU        0.567258    0.256452    0.161474     0.007504
AU88   AU        0.565687    0.290788    0.129144     0.007504
PD89   PD        0.602214    0.258437    0.127101     0.005394
PD90   PD        0.635105    0.253089    0.162116     0.005394
PD91   PD        0.634634    0.290633    0.128430     0.005394
AU92   AU        0.667196    0.290267    0.161909     0.007504
PD93   PD        0.237652    0.327647    0.160176     0.005394
AU94   AU        0.272301    0.361418    0.162629     0.007504
AU95   AU        0.303353    0.327757    0.162737     0.007504
AU96   AU        0.302502    0.362798    0.127474     0.007504
PD97   PD        0.336308    0.328144    0.131122     0.005394
PD98   PD        0.334531    0.360940    0.162081     0.005394
PD99   PD        0.371922    0.329115    0.162898     0.005394
AU100   AU        0.369370    0.361472    0.129455     0.007504
AU101   AU        0.401452    0.325368    0.128708     0.007504
PD102   PD        0.402104    0.358657    0.160961     0.005394
AU103   AU        0.435303    0.324352    0.160786     0.007504
AU104   AU        0.433904    0.360341    0.127602     0.007504
PD105   PD        0.467297    0.326074    0.129070     0.005394
AU106   AU        0.468671    0.360545    0.162581     0.007504
AU107   AU        0.500474    0.325731    0.162430     0.007504
PD108   PD        0.501086    0.360172    0.131180     0.005394
PD109   PD        0.533891    0.325180    0.131919     0.005394
AU110   AU        0.535754    0.359660    0.163759     0.007504
AU111   AU        0.570170    0.324391    0.162366     0.007504
PD112   PD        0.566218    0.360202    0.128312     0.005394
AU113   AU        0.601755    0.323955    0.129263     0.007504
AU114   AU        0.600662    0.360196    0.160168     0.007504
AU115   AU        0.634394    0.327397    0.161997     0.007504
AU116   AU        0.634363    0.362920    0.127817     0.007504
AU117   AU        0.668651    0.362426    0.161336     0.007504
AU118   AU        0.698657    0.325736    0.162317     0.007504
PD119   PD        0.199542    0.426955    0.160785     0.005394
AU120   AU        0.238011    0.396753    0.162648     0.007504
PD121   PD        0.237449    0.431018    0.125763     0.005394
PD122   PD        0.271600    0.394502    0.125968     0.005394
AU123   AU        0.269697    0.429632    0.160207     0.007504
AU124   AU        0.303289    0.398379    0.160804     0.007504
AU125   AU        0.304183    0.433382    0.128972     0.007504
AU126   AU        0.335792    0.396943    0.127878     0.007504
AU127   AU        0.336779    0.431021    0.161656     0.007504
AU128   AU        0.367476    0.396762    0.161269     0.007504
AU129   AU        0.370485    0.431922    0.129278     0.007504
PD130   PD        0.402168    0.397281    0.128966     0.005394
AU131   AU        0.403185    0.431624    0.162007     0.007504
AU132   AU        0.434390    0.395879    0.160013     0.007504
AU133   AU        0.433409    0.431884    0.128956     0.007504
AU134   AU        0.467943    0.394869    0.129843     0.007504
AU135   AU        0.468139    0.431506    0.162380     0.007504
AU136   AU        0.501897    0.395857    0.162584     0.007504
AU137   AU        0.501572    0.431456    0.129373     0.007504
AU138   AU        0.534432    0.394528    0.127772     0.007504
AU139   AU        0.535119    0.431200    0.161798     0.007504
AU140   AU        0.567420    0.397141    0.160567     0.007504
AU141   AU        0.567600    0.433570    0.128622     0.007504
AU142   AU        0.602027    0.397762    0.130105     0.007504
AU143   AU        0.600525    0.432682    0.162957     0.007504
AU144   AU        0.634636    0.397124    0.160735     0.007504
AU145   AU        0.633641    0.431870    0.127658     0.007504
PD146   PD        0.665953    0.401337    0.127934     0.005394
PD147   PD        0.667463    0.433475    0.160901     0.005394
AU148   AU        0.700722    0.396132    0.162281     0.007504
PD149   PD        0.699108    0.432445    0.129130     0.005394
PD150   PD        0.735717    0.432434    0.160994     0.005394
PD151   PD        0.170676    0.535614    0.158263     0.005394
PD152   PD        0.238023    0.465479    0.159763     0.005394
PD153   PD        0.275303    0.538334    0.057130     0.005394
AU154   AU        0.269652    0.463476    0.127291     0.007504
PD155   PD        0.271274    0.500938    0.162691     0.005394
AU156   AU        0.301740    0.466539    0.162218     0.007504
PD157   PD        0.305034    0.500802    0.129960     0.005394
PD158   PD        0.335483    0.470182    0.129370     0.005394
PD159   PD        0.336227    0.503930    0.160668     0.005394
AU160   AU        0.369901    0.466910    0.163105     0.007504
PD161   PD        0.369635    0.503808    0.129205     0.005394
AU162   AU        0.403320    0.469594    0.128407     0.007504
AU163   AU        0.401774    0.503004    0.161493     0.007504
PD164   PD        0.435303    0.467633    0.161071     0.005394
PD165   PD        0.437689    0.503990    0.127655     0.005394
AU166   AU        0.468351    0.466245    0.129101     0.007504
PD167   PD        0.466519    0.502743    0.164004     0.005394
AU168   AU        0.500978    0.467523    0.162238     0.007504
AU169   AU        0.501162    0.502414    0.129579     0.007504
PD170   PD        0.534205    0.468461    0.131063     0.005394
AU171   AU        0.535138    0.503881    0.160477     0.007504
PD172   PD        0.568708    0.466479    0.162295     0.005394
AU173   AU        0.569020    0.503808    0.128626     0.007504
AU174   AU        0.603477    0.468330    0.126897     0.007504
PD175   PD        0.603156    0.503172    0.161160     0.005394
PD176   PD        0.634702    0.467756    0.159511     0.005394
AU177   AU        0.633837    0.505239    0.128508     0.007504
AU178   AU        0.667661    0.468580    0.129343     0.007504
AU179   AU        0.668426    0.504456    0.161158     0.007504
PD180   PD        0.699419    0.469571    0.161156     0.005394
AU181   AU        0.699745    0.503963    0.127388     0.007504
AU182   AU        0.734188    0.502352    0.161697     0.007504
PD183   PD        0.240064    0.533605    0.155089     0.005394
PD184   PD        0.270950    0.535977    0.132804     0.005394
PD185   PD        0.271077    0.575356    0.161308     0.005394
AU186   AU        0.304014    0.538149    0.163719     0.007504
PD187   PD        0.304470    0.573945    0.127496     0.005394
AU188   AU        0.337472    0.535978    0.131535     0.007504
PD189   PD        0.333267    0.574654    0.163180     0.005394
PD190   PD        0.370060    0.537357    0.163169     0.005394
AU191   AU        0.370224    0.574376    0.129014     0.007504
PD192   PD        0.401326    0.538696    0.129570     0.005394
AU193   AU        0.402824    0.574429    0.161462     0.007504
AU194   AU        0.432633    0.540408    0.161955     0.007504
PD195   PD        0.434845    0.573470    0.127816     0.005394
PD196   PD        0.467275    0.538893    0.131496     0.005394
AU197   AU        0.467258    0.576387    0.162762     0.007504
PD198   PD        0.501825    0.538115    0.161781     0.005394
AU199   AU        0.498697    0.571486    0.130346     0.007504
AU200   AU        0.534554    0.539334    0.130752     0.007504
AU201   AU        0.534861    0.573374    0.163703     0.007504
AU202   AU        0.569312    0.537538    0.162494     0.007504
PD203   PD        0.567261    0.575623    0.131987     0.005394
PD204   PD        0.600760    0.537841    0.129501     0.005394
PD205   PD        0.599907    0.575120    0.162082     0.005394
AU206   AU        0.634802    0.538998    0.162070     0.007504
PD207   PD        0.635089    0.576886    0.128357     0.005394
AU208   AU        0.670004    0.540713    0.129529     0.007504
PD209   PD        0.670495    0.573956    0.160946     0.005394
AU210   AU        0.702069    0.537766    0.163466     0.007504
PD211   PD        0.238130    0.683359    0.159632     0.005394
PD212   PD        0.268320    0.647528    0.158297     0.005394
AU213   AU        0.302629    0.613164    0.164391     0.007504
PD214   PD        0.303106    0.642054    0.128183     0.005394
PD215   PD        0.337114    0.610332    0.130979     0.005394
AU216   AU        0.335278    0.646146    0.164114     0.007504
PD217   PD        0.368524    0.611080    0.163052     0.005394
PD218   PD        0.368951    0.646132    0.131108     0.005394
PD219   PD        0.403606    0.612341    0.133027     0.005394
AU220   AU        0.401390    0.645373    0.165559     0.007504
PD221   PD        0.434761    0.610853    0.164248     0.005394
AU222   AU        0.436873    0.647399    0.129563     0.007504
AU223   AU        0.468616    0.610562    0.128909     0.007504
AU224   AU        0.468718    0.645464    0.163489     0.007504
PD225   PD        0.500880    0.610189    0.162900     0.005394
AU226   AU        0.501469    0.649866    0.129986     0.007504
AU227   AU        0.532240    0.606858    0.132043     0.007504
AU228   AU        0.534784    0.645985    0.161569     0.007504
AU229   AU        0.568815    0.610459    0.162622     0.007504
AU230   AU        0.566744    0.643502    0.130840     0.007504
PD231   PD        0.600192    0.614407    0.130070     0.005394
PD232   PD        0.598710    0.647583    0.162997     0.005394
AU233   AU        0.632688    0.608463    0.162969     0.007504
PD234   PD        0.634871    0.647450    0.127617     0.005394
AU235   AU        0.664570    0.646924    0.163039     0.007504
PD236   PD        0.697901    0.612047    0.091612     0.005394
AU237   AU        0.303208    0.680955    0.163837     0.007504
PD238   PD        0.334511    0.714476    0.162468     0.005394
AU239   AU        0.368384    0.680582    0.162964     0.007504
PD240   PD        0.400674    0.680368    0.131066     0.005394
AU241   AU        0.404149    0.714895    0.162141     0.007504
PD242   PD        0.435245    0.679319    0.164963     0.005394
PD243   PD        0.403859    0.753886    0.128076     0.005394
AU244   AU        0.466220    0.681450    0.127484     0.007504
PD245   PD        0.470591    0.715580    0.162386     0.005394
PD246   PD        0.500013    0.682719    0.164600     0.005394
PD247   PD        0.499931    0.716441    0.128138     0.005394
AU248   AU        0.537025    0.679647    0.129244     0.007504
PD249   PD        0.536211    0.718529    0.159947     0.005394
AU250   AU        0.568956    0.682009    0.161424     0.007504
AU251   AU        0.601897    0.717327    0.160892     0.007504
PD252   PD        0.633617    0.680496    0.160474     0.005394
AU253   AU        0.435869    0.752340    0.162263     0.007504
AU254   AU        0.502690    0.751027    0.161496     0.007504
PD255   PD        0.337216    0.145620    0.228425     0.005394
PD256   PD        0.400900    0.148019    0.227995     0.005394
PD257   PD        0.436313    0.114289    0.224671     0.005394
PD258   PD        0.437593    0.151029    0.191467     0.005394
PD259   PD        0.467802    0.149444    0.225962     0.005394
PD260   PD        0.503487    0.115303    0.229132     0.005394
PD261   PD        0.501462    0.147726    0.193032     0.005394
PD262   PD        0.537350    0.147475    0.226884     0.005394
AU263   AU        0.602457    0.147220    0.226594     0.007504
PD264   PD        0.269559    0.220543    0.225492     0.005394
AU265   AU        0.304969    0.182187    0.224474     0.007504
AU266   AU        0.304894    0.220827    0.190697     0.007504
PD267   PD        0.338340    0.182222    0.193553     0.005394
AU268   AU        0.336425    0.218664    0.225807     0.007504
AU269   AU        0.368944    0.183546    0.226395     0.007504
PD270   PD        0.367105    0.217170    0.192751     0.005394
PD271   PD        0.404677    0.185679    0.195607     0.005394
AU272   AU        0.401972    0.218899    0.226050     0.007504
AU273   AU        0.434933    0.185465    0.227965     0.007504
AU274   AU        0.434671    0.220341    0.194231     0.007504
PD275   PD        0.468990    0.185840    0.193212     0.005394
PD276   PD        0.468939    0.220419    0.227584     0.005394
PD277   PD        0.501870    0.182699    0.226863     0.005394
PD278   PD        0.501823    0.219030    0.195517     0.005394
PD279   PD        0.535186    0.183121    0.196551     0.005394
PD280   PD        0.535619    0.218987    0.227832     0.005394
AU281   AU        0.569642    0.182257    0.225146     0.007504
PD282   PD        0.568868    0.221800    0.193751     0.005394
PD283   PD        0.599788    0.184678    0.191501     0.005394
AU284   AU        0.602460    0.220803    0.226721     0.007504
AU285   AU        0.635601    0.182139    0.227543     0.007504
PD286   PD        0.632911    0.219028    0.194000     0.005394
PD287   PD        0.667082    0.217581    0.227329     0.005394
PD288   PD        0.202703    0.291191    0.228768     0.005394
PD289   PD        0.235866    0.252951    0.225459     0.005394
AU290   AU        0.234975    0.290528    0.192613     0.007504
AU291   AU        0.271662    0.257656    0.195365     0.007504
PD292   PD        0.270055    0.290883    0.226073     0.005394
AU293   AU        0.303495    0.254707    0.228197     0.007504
PD294   PD        0.304144    0.291682    0.194254     0.005394
PD295   PD        0.336265    0.255124    0.195751     0.005394
PD296   PD        0.337734    0.289753    0.226831     0.005394
AU297   AU        0.368994    0.252911    0.224724     0.007504
AU298   AU        0.371403    0.290679    0.196031     0.007504
AU299   AU        0.404044    0.254090    0.196205     0.007504
PD300   PD        0.402205    0.290143    0.228923     0.005394
AU301   AU        0.436215    0.256853    0.226892     0.007504
PD302   PD        0.433994    0.291166    0.195653     0.005394
AU303   AU        0.468866    0.255949    0.194747     0.007504
PD304   PD        0.471032    0.291605    0.226373     0.005394
AU305   AU        0.501771    0.255132    0.227565     0.007504
AU306   AU        0.500309    0.292745    0.194073     0.007504
AU307   AU        0.535027    0.257506    0.195231     0.007504
PD308   PD        0.534111    0.292051    0.226304     0.005394
PD309   PD        0.569348    0.255478    0.225456     0.005394
AU310   AU        0.568116    0.289719    0.196349     0.007504
AU311   AU        0.602904    0.255007    0.192439     0.007504
AU312   AU        0.602274    0.292172    0.227729     0.007504
AU313   AU        0.635254    0.254924    0.229224     0.007504
AU314   AU        0.634488    0.289566    0.194362     0.007504
PD315   PD        0.665337    0.252623    0.194545     0.005394
AU316   AU        0.666454    0.290672    0.226507     0.007504
AU317   AU        0.700478    0.254881    0.227480     0.007504
AU318   AU        0.699946    0.290412    0.195027     0.007504
AU319   AU        0.733405    0.290426    0.228174     0.007504
PD320   PD        0.172169    0.325249    0.226069     0.005394
PD321   PD        0.205813    0.332859    0.194866     0.005394
PD322   PD        0.205036    0.359856    0.225028     0.005394
PD323   PD        0.236341    0.323315    0.224350     0.005394
PD324   PD        0.234830    0.361549    0.191363     0.005394
AU325   AU        0.269414    0.324386    0.192771     0.007504
AU326   AU        0.270460    0.360155    0.227160     0.007504
PD327   PD        0.303433    0.325904    0.227931     0.005394
PD328   PD        0.304907    0.362073    0.193603     0.005394
AU329   AU        0.337799    0.325815    0.193359     0.007504
AU330   AU        0.334215    0.360890    0.227628     0.007504
PD331   PD        0.368204    0.327952    0.227644     0.005394
PD332   PD        0.369034    0.361042    0.195888     0.005394
AU333   AU        0.401741    0.326723    0.195527     0.007504
AU334   AU        0.402411    0.360732    0.228342     0.007504
AU335   AU        0.437722    0.325463    0.227311     0.007504
PD336   PD        0.435033    0.359455    0.192174     0.005394
PD337   PD        0.468133    0.327045    0.194703     0.005394
PD338   PD        0.469514    0.362265    0.229392     0.005394
PD339   PD        0.501993    0.327797    0.228388     0.005394
PD340   PD        0.500321    0.361754    0.192551     0.005394
PD341   PD        0.534860    0.324676    0.195875     0.005394
PD342   PD        0.533250    0.363711    0.225356     0.005394
AU343   AU        0.567295    0.324621    0.227582     0.007504
AU344   AU        0.570485    0.361991    0.193491     0.007504
AU345   AU        0.600604    0.325073    0.195488     0.007504
PD346   PD        0.598901    0.360960    0.229120     0.005394
AU347   AU        0.634366    0.326504    0.228195     0.007504
PD348   PD        0.633805    0.361942    0.192914     0.005394
AU349   AU        0.667365    0.326933    0.194193     0.007504
AU350   AU        0.666442    0.362178    0.227900     0.007504
AU351   AU        0.701606    0.324852    0.228097     0.007504
AU352   AU        0.699499    0.361582    0.195285     0.007504
PD353   PD        0.731235    0.326812    0.192130     0.005394
AU354   AU        0.732436    0.364642    0.226047     0.007504
PD355   PD        0.765087    0.326166    0.229365     0.005394
PD356   PD        0.138705    0.435711    0.227861     0.005394
AU357   AU        0.172275    0.399334    0.226814     0.007504
AU358   AU        0.170249    0.434173    0.193889     0.007504
PD359   PD        0.202932    0.393781    0.192667     0.005394
AU360   AU        0.205582    0.431026    0.230813     0.007504
PD361   PD        0.236460    0.393857    0.224974     0.005394
PD362   PD        0.237824    0.433094    0.194997     0.005394
AU363   AU        0.270651    0.397416    0.194170     0.007504
AU364   AU        0.270391    0.432204    0.227288     0.007504
AU365   AU        0.303499    0.396879    0.226904     0.007504
PD366   PD        0.304105    0.431016    0.194454     0.005394
PD367   PD        0.336033    0.398804    0.195173     0.005394
AU368   AU        0.334568    0.431845    0.227669     0.007504
AU369   AU        0.368395    0.396307    0.227135     0.007504
PD370   PD        0.369899    0.430794    0.194533     0.005394
AU371   AU        0.401035    0.395927    0.193817     0.007504
PD372   PD        0.401534    0.431460    0.228946     0.005394
AU373   AU        0.434475    0.397532    0.225883     0.007504
AU374   AU        0.434100    0.429660    0.193642     0.007504
PD375   PD        0.468360    0.395237    0.196022     0.005394
AU376   AU        0.469779    0.433067    0.228361     0.007504
AU377   AU        0.501852    0.397243    0.225320     0.007504
PD378   PD        0.499715    0.431276    0.193027     0.005394
AU379   AU        0.536735    0.397469    0.193420     0.007504
AU380   AU        0.533455    0.433221    0.226981     0.007504
AU381   AU        0.570012    0.398713    0.227909     0.007504
AU382   AU        0.569787    0.433571    0.196247     0.007504
AU383   AU        0.601255    0.397017    0.193012     0.007504
PD384   PD        0.601130    0.429947    0.231078     0.005394
PD385   PD        0.634952    0.397639    0.225805     0.005394
PD386   PD        0.634327    0.432756    0.193260     0.005394
AU387   AU        0.666875    0.396736    0.193902     0.007504
PD388   PD        0.666854    0.431052    0.227103     0.005394
AU389   AU        0.700815    0.397717    0.226644     0.007504
AU390   AU        0.698343    0.434241    0.194183     0.007504
AU391   AU        0.734272    0.398147    0.193709     0.007504
PD392   PD        0.733011    0.432090    0.227456     0.005394
PD393   PD        0.767036    0.396617    0.227849     0.005394
PD394   PD        0.765812    0.433246    0.194241     0.005394
AU395   AU        0.797602    0.435320    0.227314     0.007504
PD396   PD        0.100568    0.532382    0.162647     0.005394
PD397   PD        0.172875    0.466861    0.225606     0.005394
AU398   AU        0.172344    0.501321    0.194695     0.007504
PD399   PD        0.202771    0.466473    0.190691     0.005394
PD400   PD        0.205160    0.500754    0.226898     0.005394
PD401   PD        0.238015    0.466889    0.227183     0.005394
PD402   PD        0.237488    0.503939    0.196677     0.005394
PD403   PD        0.270321    0.466016    0.192936     0.005394
PD404   PD        0.270164    0.501844    0.228816     0.005394
AU405   AU        0.302343    0.465770    0.229567     0.007504
AU406   AU        0.304860    0.500702    0.195337     0.007504
PD407   PD        0.337973    0.467847    0.195139     0.005394
AU408   AU        0.335402    0.504388    0.227315     0.007504
AU409   AU        0.368391    0.466150    0.227415     0.007504
AU410   AU        0.369876    0.502997    0.196208     0.007504
AU411   AU        0.402784    0.468420    0.195364     0.007504
AU412   AU        0.402244    0.502843    0.228219     0.007504
PD413   PD        0.435922    0.465488    0.225448     0.005394
AU414   AU        0.435820    0.501052    0.196711     0.007504
PD415   PD        0.468161    0.465818    0.195821     0.005394
AU416   AU        0.468824    0.503002    0.228338     0.007504
PD417   PD        0.501551    0.469581    0.227131     0.005394
AU418   AU        0.501078    0.503167    0.194606     0.007504
AU419   AU        0.533918    0.465657    0.195344     0.007504
AU420   AU        0.534996    0.503996    0.227512     0.007504
AU421   AU        0.568451    0.467405    0.227637     0.007504
AU422   AU        0.568168    0.503350    0.194508     0.007504
AU423   AU        0.604332    0.467403    0.194432     0.007504
PD424   PD        0.601070    0.501449    0.226858     0.005394
AU425   AU        0.634414    0.467544    0.228306     0.007504
AU426   AU        0.634547    0.503610    0.195631     0.007504
AU427   AU        0.665915    0.469571    0.192680     0.007504
AU428   AU        0.666958    0.501663    0.227672     0.007504
PD429   PD        0.697609    0.468361    0.227873     0.005394
AU430   AU        0.701034    0.502361    0.194221     0.007504
AU431   AU        0.731721    0.467690    0.196545     0.007504
AU432   AU        0.733053    0.504043    0.227601     0.007504
AU433   AU        0.763476    0.467709    0.229383     0.007504
AU434   AU        0.764063    0.501817    0.195349     0.007504
PD435   PD        0.838644    0.539984    0.165149     0.005394
PD436   PD        0.167589    0.538274    0.228063     0.005394
PD437   PD        0.176746    0.583492    0.169358     0.005394
PD438   PD        0.202606    0.577563    0.230031     0.005394
PD439   PD        0.235100    0.538813    0.227578     0.005394
PD440   PD        0.235897    0.570648    0.191040     0.005394
AU441   AU        0.269693    0.536574    0.194106     0.007504
PD442   PD        0.269588    0.572864    0.227438     0.005394
AU443   AU        0.302448    0.538182    0.227757     0.007504
AU444   AU        0.302773    0.574303    0.194099     0.007504
PD445   PD        0.335781    0.539268    0.196387     0.005394
PD446   PD        0.335921    0.578933    0.227935     0.005394
PD447   PD        0.368417    0.539374    0.229376     0.005394
PD448   PD        0.366793    0.574417    0.195561     0.005394
AU449   AU        0.401259    0.538303    0.196140     0.007504
PD450   PD        0.400752    0.573036    0.227175     0.005394
PD451   PD        0.433863    0.537258    0.227746     0.005394
PD452   PD        0.435579    0.574313    0.197598     0.005394
AU453   AU        0.467039    0.539094    0.194063     0.007504
AU454   AU        0.466887    0.575697    0.230241     0.007504
PD455   PD        0.501404    0.537351    0.226985     0.005394
PD456   PD        0.500605    0.572750    0.196561     0.005394
AU457   AU        0.535354    0.537869    0.194658     0.007504
AU458   AU        0.534661    0.574262    0.228213     0.007504
PD459   PD        0.570610    0.540642    0.230554     0.005394
PD460   PD        0.568512    0.573681    0.195802     0.005394
AU461   AU        0.601725    0.540513    0.195699     0.007504
PD462   PD        0.601094    0.575940    0.228436     0.005394
AU463   AU        0.632878    0.537135    0.228449     0.007504
PD464   PD        0.635426    0.573766    0.193471     0.005394
AU465   AU        0.667416    0.539440    0.193541     0.007504
PD466   PD        0.667285    0.574444    0.226585     0.005394
AU467   AU        0.699660    0.539010    0.227158     0.007504
AU468   AU        0.700779    0.573871    0.194067     0.007504
PD469   PD        0.733948    0.538998    0.197531     0.005394
AU470   AU        0.733002    0.575553    0.228711     0.007504
PD471   PD        0.770930    0.537619    0.229293     0.005394
PD472   PD        0.168667    0.610661    0.231269     0.005394
PD473   PD        0.198544    0.614870    0.197815     0.005394
PD474   PD        0.166121    0.679429    0.223470     0.005394
PD475   PD        0.236596    0.610259    0.231286     0.005394
PD476   PD        0.234731    0.644874    0.191233     0.005394
AU477   AU        0.269390    0.612098    0.196341     0.007504
PD478   PD        0.268244    0.646605    0.228413     0.005394
PD479   PD        0.304796    0.611611    0.226035     0.005394
AU480   AU        0.303752    0.647464    0.197061     0.007504
PD481   PD        0.337645    0.610252    0.196247     0.005394
AU482   AU        0.337446    0.645049    0.228684     0.007504
PD483   PD        0.369715    0.610978    0.229627     0.005394
AU484   AU        0.369053    0.646544    0.196324     0.007504
PD485   PD        0.402855    0.608659    0.195214     0.005394
AU486   AU        0.402744    0.646453    0.227474     0.007504
AU487   AU        0.434656    0.611872    0.227644     0.007504
AU488   AU        0.437147    0.645423    0.195573     0.007504
AU489   AU        0.469077    0.607978    0.194709     0.007504
PD490   PD        0.468376    0.644135    0.228778     0.005394
AU491   AU        0.500292    0.609694    0.229729     0.007504
AU492   AU        0.501511    0.647098    0.195642     0.007504
PD493   PD        0.533875    0.609017    0.195559     0.005394
PD494   PD        0.534477    0.646308    0.229150     0.005394
AU495   AU        0.566510    0.610162    0.226587     0.007504
AU496   AU        0.567516    0.646854    0.195420     0.007504
AU497   AU        0.602032    0.610231    0.196214     0.007504
AU498   AU        0.600365    0.648821    0.228594     0.007504
PD499   PD        0.634468    0.610274    0.227262     0.005394
AU500   AU        0.632817    0.645574    0.195940     0.007504
AU501   AU        0.667030    0.609659    0.195800     0.007504
PD502   PD        0.670293    0.646268    0.228697     0.005394
AU503   AU        0.700933    0.609669    0.229653     0.007504
PD504   PD        0.700931    0.646893    0.195726     0.005394
PD505   PD        0.734351    0.613018    0.196679     0.005394
AU506   AU        0.731831    0.647093    0.228143     0.007504
PD507   PD        0.769252    0.610913    0.230997     0.005394
PD508   PD        0.236975    0.682797    0.229715     0.005394
PD509   PD        0.272075    0.716235    0.162072     0.005394
PD510   PD        0.269925    0.718461    0.227350     0.005394
AU511   AU        0.304058    0.682006    0.228668     0.007504
AU512   AU        0.304090    0.716143    0.197139     0.007504
AU513   AU        0.337342    0.682166    0.197217     0.007504
AU514   AU        0.337701    0.716930    0.230007     0.007504
PD515   PD        0.369444    0.683095    0.229329     0.005394
AU516   AU        0.370894    0.716511    0.194228     0.007504
AU517   AU        0.404732    0.679329    0.196264     0.007504
AU518   AU        0.402435    0.715938    0.226810     0.007504
AU519   AU        0.437836    0.679557    0.228571     0.007504
AU520   AU        0.437093    0.714854    0.196082     0.007504
PD521   PD        0.468612    0.681796    0.194786     0.005394
AU522   AU        0.468816    0.717126    0.227011     0.007504
PD523   PD        0.500045    0.683078    0.227345     0.005394
AU524   AU        0.502414    0.716117    0.196527     0.007504
AU525   AU        0.534151    0.680253    0.193837     0.007504
AU526   AU        0.533211    0.716935    0.227730     0.007504
AU527   AU        0.567825    0.682824    0.225828     0.007504
AU528   AU        0.566025    0.717345    0.193015     0.007504
PD529   PD        0.601102    0.683944    0.194596     0.005394
PD530   PD        0.599740    0.718856    0.225572     0.005394
AU531   AU        0.635484    0.682539    0.227063     0.007504
PD532   PD        0.634941    0.717431    0.195237     0.005394
PD533   PD        0.669252    0.680423    0.195282     0.005394
AU534   AU        0.667211    0.716987    0.227453     0.007504
AU535   AU        0.702119    0.683077    0.229185     0.007504
AU536   AU        0.305035    0.750520    0.228040     0.007504
AU537   AU        0.336000    0.750677    0.192230     0.007504
PD538   PD        0.337232    0.786914    0.225291     0.005394
AU539   AU        0.368746    0.752035    0.226255     0.007504
PD540   PD        0.404748    0.752233    0.195645     0.005394
PD541   PD        0.404949    0.787053    0.229519     0.005394
AU542   AU        0.436501    0.752624    0.227994     0.007504
PD543   PD        0.435776    0.784979    0.194813     0.005394
AU544   AU        0.470050    0.751567    0.194941     0.007504
PD545   PD        0.468296    0.786055    0.230742     0.005394
AU546   AU        0.503480    0.751667    0.227514     0.007504
AU547   AU        0.501820    0.787350    0.194351     0.007504
AU548   AU        0.534586    0.751287    0.192347     0.007504
PD549   PD        0.535492    0.786982    0.227872     0.005394
AU550   AU        0.565027    0.751827    0.226211     0.007504
PD551   PD        0.597781    0.754525    0.194789     0.005394
PD552   PD        0.601624    0.788402    0.227026     0.005394
AU553   AU        0.635047    0.751728    0.227758     0.007504
PD554   PD        0.438172    0.818204    0.226268     0.005394
PD555   PD        0.498439    0.823340    0.230095     0.005394
AU556   AU        0.403752    0.074396    0.292030     0.007504
AU557   AU        0.469395    0.074529    0.295826     0.007504
AU558   AU        0.537597    0.076850    0.293074     0.007504
PD559   PD        0.271501    0.147136    0.294828     0.005394
PD560   PD        0.302039    0.110678    0.293647     0.005394
AU561   AU        0.304311    0.146605    0.259133     0.007504
PD562   PD        0.337177    0.146056    0.294059     0.005394
PD563   PD        0.371309    0.109854    0.292825     0.005394
PD564   PD        0.370119    0.147095    0.261887     0.005394
PD565   PD        0.401852    0.109556    0.260304     0.005394
PD566   PD        0.405522    0.148227    0.293948     0.005394
PD567   PD        0.433937    0.112873    0.292958     0.005394
PD568   PD        0.434390    0.146988    0.259978     0.005394
PD569   PD        0.467478    0.110677    0.261866     0.005394
PD570   PD        0.469900    0.147418    0.295134     0.005394
PD571   PD        0.499099    0.109994    0.295799     0.005394
PD572   PD        0.503102    0.150076    0.259728     0.005394
PD573   PD        0.534988    0.111085    0.259589     0.005394
AU574   AU        0.535138    0.146292    0.292553     0.007504
AU575   AU        0.568844    0.112625    0.293267     0.007504
AU576   AU        0.570357    0.147675    0.258789     0.007504
AU577   AU        0.600625    0.147851    0.293696     0.007504
PD578   PD        0.632311    0.113188    0.294379     0.005394
AU579   AU        0.631805    0.148857    0.261163     0.007504
PD580   PD        0.665679    0.151713    0.295751     0.005394
AU581   AU        0.206227    0.220814    0.291409     0.007504
PD582   PD        0.235730    0.181885    0.290212     0.005394
AU583   AU        0.237772    0.217655    0.257692     0.007504
PD584   PD        0.271632    0.181589    0.259748     0.005394
PD585   PD        0.269686    0.217878    0.291296     0.005394
AU586   AU        0.303414    0.183137    0.292418     0.007504
AU587   AU        0.302393    0.219896    0.257552     0.007504
PD588   PD        0.336684    0.181963    0.257905     0.005394
AU589   AU        0.335576    0.215879    0.292966     0.007504
AU590   AU        0.369225    0.181988    0.293339     0.007504
AU591   AU        0.369396    0.218827    0.258642     0.007504
PD592   PD        0.399196    0.182743    0.261112     0.005394
PD593   PD        0.403443    0.218625    0.293260     0.005394
PD594   PD        0.435595    0.183160    0.292423     0.005394
AU595   AU        0.435691    0.217769    0.259935     0.007504
PD596   PD        0.467515    0.181396    0.259488     0.005394
PD597   PD        0.467311    0.216973    0.290322     0.005394
PD598   PD        0.503080    0.183037    0.293721     0.005394
AU599   AU        0.502112    0.217751    0.259635     0.007504
AU600   AU        0.537554    0.183530    0.258441     0.007504
PD601   PD        0.536045    0.217200    0.292232     0.005394
AU602   AU        0.566746    0.183112    0.292949     0.007504
PD603   PD        0.570308    0.217624    0.259450     0.005394
AU604   AU        0.601391    0.183085    0.260309     0.007504
AU605   AU        0.601386    0.218243    0.292290     0.007504
AU606   AU        0.632165    0.183630    0.295242     0.007504
AU607   AU        0.633459    0.218940    0.261799     0.007504
PD608   PD        0.666463    0.181612    0.263348     0.005394
AU609   AU        0.666629    0.221105    0.293457     0.007504
PD610   PD        0.702947    0.184901    0.294694     0.005394
PD611   PD        0.699312    0.221197    0.260860     0.005394
PD612   PD        0.762633    0.216963    0.253893     0.005394
PD613   PD        0.132509    0.277117    0.301888     0.005394
AU614   AU        0.169512    0.252625    0.291996     0.007504
PD615   PD        0.167956    0.291019    0.260580     0.005394
PD616   PD        0.202653    0.254289    0.257374     0.005394
AU617   AU        0.203344    0.287603    0.294015     0.007504
AU618   AU        0.236689    0.254780    0.290245     0.007504
AU619   AU        0.236719    0.290802    0.259119     0.007504
AU620   AU        0.269267    0.254191    0.257024     0.007504
PD621   PD        0.269779    0.291385    0.290774     0.005394
AU622   AU        0.302920    0.251043    0.292548     0.007504
PD623   PD        0.301614    0.287768    0.262012     0.005394
AU624   AU        0.336664    0.252173    0.258976     0.007504
PD625   PD        0.334473    0.289044    0.292619     0.005394
AU626   AU        0.367741    0.253843    0.293182     0.007504
PD627   PD        0.367744    0.288093    0.258631     0.005394
AU628   AU        0.402271    0.253330    0.260217     0.007504
PD629   PD        0.402347    0.293810    0.294019     0.005394
PD630   PD        0.435155    0.253158    0.293334     0.005394
PD631   PD        0.438829    0.289342    0.262134     0.005394
PD632   PD        0.468986    0.253213    0.261968     0.005394
PD633   PD        0.469466    0.290500    0.294612     0.005394
AU634   AU        0.503660    0.253322    0.293677     0.007504
AU635   AU        0.503287    0.289614    0.261167     0.007504
AU636   AU        0.536418    0.254011    0.259378     0.007504
AU637   AU        0.533088    0.291136    0.293028     0.007504
PD638   PD        0.568574    0.256585    0.292715     0.005394
AU639   AU        0.567922    0.289867    0.261519     0.007504
AU640   AU        0.601177    0.254887    0.257983     0.007504
PD641   PD        0.601655    0.291960    0.292873     0.005394
PD642   PD        0.633719    0.255818    0.294440     0.005394
AU643   AU        0.634983    0.290500    0.261415     0.007504
PD644   PD        0.668336    0.253272    0.259964     0.005394
AU645   AU        0.668476    0.289419    0.293479     0.007504
PD646   PD        0.701822    0.254300    0.296628     0.005394
PD647   PD        0.700018    0.289104    0.261096     0.005394
AU648   AU        0.732275    0.255721    0.260466     0.007504
AU649   AU        0.733065    0.289899    0.291910     0.007504
PD650   PD        0.765096    0.255087    0.296307     0.005394
PD651   PD        0.766996    0.288949    0.262012     0.005394
PD652   PD        0.800101    0.292254    0.296683     0.005394
AU653   AU        0.137406    0.361205    0.293032     0.007504
AU654   AU        0.170506    0.326427    0.291512     0.007504
AU655   AU        0.169018    0.361184    0.258235     0.007504
PD656   PD        0.205887    0.325019    0.260636     0.005394
PD657   PD        0.204604    0.361070    0.293933     0.005394
PD658   PD        0.237289    0.323322    0.294376     0.005394
AU659   AU        0.236663    0.361259    0.260089     0.007504
PD660   PD        0.271560    0.325575    0.259992     0.005394
PD661   PD        0.268653    0.362135    0.292339     0.005394
AU662   AU        0.305737    0.324825    0.291378     0.007504
AU663   AU        0.303931    0.363635    0.261227     0.007504
PD664   PD        0.336461    0.325850    0.260033     0.005394
PD665   PD        0.336557    0.362255    0.294599     0.005394
PD666   PD        0.369922    0.325691    0.292654     0.005394
PD667   PD        0.367911    0.361546    0.259818     0.005394
AU668   AU        0.403321    0.326274    0.258895     0.007504
AU669   AU        0.402248    0.362668    0.295391     0.007504
PD670   PD        0.433478    0.326266    0.293935     0.005394
AU671   AU        0.437449    0.361419    0.260630     0.007504
PD672   PD        0.468927    0.324951    0.261580     0.005394
AU673   AU        0.469567    0.361715    0.294237     0.007504
PD674   PD        0.501087    0.328548    0.292606     0.005394
PD675   PD        0.501275    0.359701    0.260319     0.005394
AU676   AU        0.533364    0.325447    0.261531     0.007504
AU677   AU        0.537091    0.362082    0.293710     0.007504
AU678   AU        0.567015    0.324992    0.294459     0.007504
AU679   AU        0.566856    0.359929    0.260568     0.007504
AU680   AU        0.602510    0.326830    0.260972     0.007504
PD681   PD        0.600899    0.361204    0.293493     0.005394
PD682   PD        0.634054    0.327650    0.294548     0.005394
AU683   AU        0.635383    0.362022    0.263007     0.007504
PD684   PD        0.668147    0.326787    0.259000     0.005394
PD685   PD        0.667619    0.358097    0.293929     0.005394
PD686   PD        0.700065    0.326077    0.290408     0.005394
PD687   PD        0.700215    0.359538    0.257467     0.005394
PD688   PD        0.731519    0.326987    0.259185     0.005394
AU689   AU        0.732562    0.362150    0.292688     0.007504
AU690   AU        0.764313    0.326771    0.293825     0.007504
PD691   PD        0.765082    0.361324    0.258567     0.005394
PD692   PD        0.797132    0.360426    0.292742     0.005394
PD693   PD        0.104803    0.398097    0.289695     0.005394
PD694   PD        0.137388    0.395846    0.259406     0.005394
PD695   PD        0.139625    0.433115    0.294757     0.005394
AU696   AU        0.171592    0.395822    0.292398     0.007504
AU697   AU        0.172035    0.432735    0.260827     0.007504
PD698   PD        0.202343    0.395208    0.259564     0.005394
AU699   AU        0.202683    0.433236    0.293922     0.007504
AU700   AU        0.234841    0.396528    0.293800     0.007504
PD701   PD        0.234337    0.429431    0.258872     0.005394
PD702   PD        0.268318    0.395520    0.259460     0.005394
PD703   PD        0.268369    0.431241    0.292630     0.005394
AU704   AU        0.303234    0.397342    0.293802     0.007504
AU705   AU        0.301136    0.431167    0.261197     0.007504
AU706   AU        0.336913    0.398122    0.260828     0.007504
PD707   PD        0.334451    0.431962    0.295484     0.005394
PD708   PD        0.369871    0.395971    0.293299     0.005394
AU709   AU        0.368294    0.434170    0.263157     0.007504
AU710   AU        0.401391    0.396689    0.261031     0.007504
PD711   PD        0.401667    0.431896    0.294712     0.005394
PD712   PD        0.434651    0.394804    0.293214     0.005394
PD713   PD        0.436118    0.432396    0.262352     0.005394
AU714   AU        0.469496    0.398108    0.261310     0.007504
PD715   PD        0.470953    0.433355    0.291991     0.005394
AU716   AU        0.502574    0.397680    0.294592     0.007504
AU717   AU        0.501616    0.434318    0.260419     0.007504
AU718   AU        0.533300    0.394945    0.260397     0.007504
PD719   PD        0.534308    0.433072    0.291701     0.005394
PD720   PD        0.568292    0.397222    0.292380     0.005394
PD721   PD        0.568194    0.431977    0.261193     0.005394
AU722   AU        0.601485    0.394006    0.261770     0.007504
PD723   PD        0.600404    0.433215    0.294132     0.005394
PD724   PD        0.633313    0.397698    0.295890     0.005394
AU725   AU        0.635316    0.430333    0.259190     0.007504
AU726   AU        0.669517    0.395000    0.262020     0.007504
AU727   AU        0.665866    0.431413    0.293735     0.007504
PD728   PD        0.699222    0.397780    0.295115     0.005394
AU729   AU        0.699020    0.431193    0.260567     0.007504
PD730   PD        0.732475    0.397280    0.259313     0.005394
PD731   PD        0.732698    0.430284    0.293287     0.005394
AU732   AU        0.766928    0.397050    0.295869     0.007504
AU733   AU        0.764811    0.430330    0.260161     0.007504
AU734   AU        0.800063    0.396128    0.262477     0.007504
PD735   PD        0.799061    0.430488    0.294154     0.005394
PD736   PD        0.828365    0.359695    0.256636     0.005394
AU737   AU        0.106318    0.466632    0.292088     0.007504
PD738   PD        0.139912    0.468552    0.260692     0.005394
PD739   PD        0.134084    0.506227    0.297100     0.005394
PD740   PD        0.170986    0.469250    0.292751     0.005394
PD741   PD        0.168915    0.506918    0.261097     0.005394
AU742   AU        0.202891    0.468419    0.261800     0.007504
PD743   PD        0.200959    0.505571    0.294783     0.005394
AU744   AU        0.235727    0.466858    0.293153     0.007504
PD745   PD        0.235241    0.503617    0.259878     0.005394
AU746   AU        0.267499    0.466697    0.262369     0.007504
AU747   AU        0.270445    0.501764    0.292448     0.007504
AU748   AU        0.302994    0.467134    0.294099     0.007504
AU749   AU        0.302795    0.501794    0.261799     0.007504
AU750   AU        0.337000    0.469329    0.260018     0.007504
AU751   AU        0.335365    0.505261    0.294087     0.007504
AU752   AU        0.370457    0.469657    0.294250     0.007504
AU753   AU        0.370635    0.504832    0.260463     0.007504
AU754   AU        0.401888    0.469256    0.261887     0.007504
AU755   AU        0.404282    0.504031    0.292320     0.007504
AU756   AU        0.436636    0.468727    0.292585     0.007504
AU757   AU        0.436958    0.505165    0.259743     0.007504
AU758   AU        0.468961    0.467168    0.261893     0.007504
AU759   AU        0.467588    0.504146    0.293042     0.007504
AU760   AU        0.501458    0.468004    0.296042     0.007504
AU761   AU        0.502028    0.503765    0.260936     0.007504
PD762   PD        0.534650    0.466991    0.261756     0.005394
AU763   AU        0.533790    0.502536    0.295653     0.007504
AU764   AU        0.568645    0.468060    0.292845     0.007504
AU765   AU        0.567528    0.503583    0.259841     0.007504
AU766   AU        0.601749    0.466733    0.261848     0.007504
AU767   AU        0.600204    0.502261    0.293101     0.007504
AU768   AU        0.634416    0.466386    0.295252     0.007504
AU769   AU        0.635075    0.501439    0.260675     0.007504
AU770   AU        0.667297    0.467075    0.262566     0.007504
AU771   AU        0.667893    0.503468    0.294484     0.007504
AU772   AU        0.699532    0.468974    0.294954     0.007504
PD773   PD        0.699866    0.506172    0.260761     0.005394
PD774   PD        0.732278    0.470432    0.259797     0.005394
AU775   AU        0.732260    0.502292    0.294023     0.007504
AU776   AU        0.765720    0.467868    0.292988     0.007504
PD777   PD        0.766436    0.503353    0.262187     0.005394
AU778   AU        0.800730    0.468491    0.263919     0.007504
AU779   AU        0.800569    0.503137    0.295446     0.007504
PD780   PD        0.834757    0.464462    0.294314     0.005394
PD781   PD        0.094719    0.497320    0.222880     0.005394
PD782   PD        0.136997    0.537288    0.261883     0.005394
AU783   AU        0.139188    0.576773    0.295153     0.007504
AU784   AU        0.169718    0.538366    0.296251     0.007504
AU785   AU        0.170058    0.575482    0.263399     0.007504
PD786   PD        0.199906    0.537688    0.261583     0.005394
AU787   AU        0.204482    0.576070    0.294954     0.007504
PD788   PD        0.236099    0.540982    0.293812     0.005394
PD789   PD        0.236279    0.573085    0.261101     0.005394
PD790   PD        0.267841    0.537814    0.262440     0.005394
PD791   PD        0.270078    0.576707    0.295211     0.005394
PD792   PD        0.304377    0.537424    0.295246     0.005394
AU793   AU        0.301954    0.573837    0.261177     0.007504
AU794   AU        0.336546    0.540224    0.259709     0.007504
AU795   AU        0.336256    0.572784    0.293290     0.007504
PD796   PD        0.368169    0.538707    0.291777     0.005394
AU797   AU        0.369885    0.574582    0.258791     0.007504
AU798   AU        0.404159    0.539340    0.261299     0.007504
PD799   PD        0.400898    0.575037    0.295747     0.005394
AU800   AU        0.436201    0.539384    0.294289     0.007504
AU801   AU        0.432915    0.575490    0.262951     0.007504
AU802   AU        0.470418    0.539904    0.260119     0.007504
AU803   AU        0.468599    0.574140    0.293939     0.007504
PD804   PD        0.501275    0.536145    0.297116     0.005394
PD805   PD        0.501559    0.574025    0.261250     0.005394
AU806   AU        0.534335    0.538704    0.259451     0.007504
PD807   PD        0.533717    0.573680    0.294088     0.005394
PD808   PD        0.565385    0.537285    0.292491     0.005394
PD809   PD        0.567240    0.574179    0.261047     0.005394
AU810   AU        0.602460    0.538931    0.260245     0.007504
PD811   PD        0.600331    0.574144    0.294022     0.005394
PD812   PD        0.633767    0.538434    0.292507     0.005394
AU813   AU        0.634961    0.576365    0.260341     0.007504
AU814   AU        0.666686    0.538112    0.257888     0.007504
AU815   AU        0.667139    0.572512    0.294110     0.007504
AU816   AU        0.700427    0.538594    0.294365     0.007504
AU817   AU        0.699797    0.573798    0.259478     0.007504
AU818   AU        0.735264    0.537844    0.261410     0.007504
AU819   AU        0.732001    0.573440    0.294979     0.007504
AU820   AU        0.766871    0.537969    0.295307     0.007504
AU821   AU        0.765040    0.575219    0.261792     0.007504
PD822   PD        0.801912    0.539893    0.264550     0.005394
AU823   AU        0.799901    0.575854    0.296140     0.007504
PD824   PD        0.849779    0.582344    0.217155     0.005394
PD825   PD        0.137446    0.648603    0.292482     0.005394
PD826   PD        0.170688    0.610259    0.295557     0.005394
PD827   PD        0.171385    0.645559    0.262503     0.005394
AU828   AU        0.203528    0.611648    0.261493     0.007504
PD829   PD        0.204401    0.647159    0.294354     0.005394
PD830   PD        0.233693    0.612601    0.295105     0.005394
PD831   PD        0.236122    0.646614    0.260141     0.005394
PD832   PD        0.268848    0.608955    0.261715     0.005394
PD833   PD        0.270442    0.645763    0.294189     0.005394
PD834   PD        0.303320    0.613311    0.293376     0.005394
PD835   PD        0.301178    0.645483    0.262583     0.005394
PD836   PD        0.335995    0.611939    0.261301     0.005394
AU837   AU        0.335541    0.646226    0.293590     0.007504
AU838   AU        0.369076    0.610959    0.292177     0.007504
PD839   PD        0.372430    0.647822    0.261374     0.005394
PD840   PD        0.402786    0.609665    0.260793     0.005394
AU841   AU        0.401976    0.646139    0.295463     0.007504
AU842   AU        0.433427    0.609900    0.294469     0.007504
AU843   AU        0.436201    0.646754    0.262364     0.007504
AU844   AU        0.468492    0.609555    0.262634     0.007504
AU845   AU        0.469805    0.646629    0.293728     0.007504
PD846   PD        0.501404    0.610224    0.295450     0.005394
AU847   AU        0.500801    0.645748    0.261498     0.007504
AU848   AU        0.533953    0.608822    0.261900     0.007504
AU849   AU        0.535303    0.643946    0.293957     0.007504
PD850   PD        0.567688    0.613440    0.293285     0.005394
PD851   PD        0.568289    0.646154    0.258595     0.005394
PD852   PD        0.601509    0.609755    0.262789     0.005394
PD853   PD        0.601875    0.643865    0.291999     0.005394
AU854   AU        0.637499    0.609857    0.294263     0.007504
PD855   PD        0.635915    0.646601    0.259757     0.005394
PD856   PD        0.669089    0.609046    0.257260     0.005394
AU857   AU        0.667818    0.646511    0.295145     0.007504
AU858   AU        0.699568    0.610346    0.293347     0.007504
AU859   AU        0.701087    0.644592    0.262486     0.007504
AU860   AU        0.732366    0.609945    0.261569     0.007504
AU861   AU        0.734592    0.644770    0.293270     0.007504
PD862   PD        0.764541    0.608605    0.296272     0.005394
PD863   PD        0.765813    0.642675    0.260793     0.005394
PD864   PD        0.798237    0.644234    0.296430     0.005394
PD865   PD        0.168444    0.684484    0.294105     0.005394
AU866   AU        0.203232    0.682916    0.263100     0.007504
AU867   AU        0.204331    0.717768    0.296255     0.007504
AU868   AU        0.235743    0.681389    0.294818     0.007504
AU869   AU        0.237306    0.718863    0.261412     0.007504
AU870   AU        0.269203    0.680325    0.261537     0.007504
AU871   AU        0.271828    0.717846    0.294647     0.007504
PD872   PD        0.302719    0.681275    0.293287     0.005394
AU873   AU        0.304447    0.717066    0.261813     0.007504
AU874   AU        0.337536    0.679679    0.260537     0.007504
PD875   PD        0.336622    0.715003    0.292451     0.005394
AU876   AU        0.368833    0.680234    0.293132     0.007504
PD877   PD        0.369163    0.717267    0.260068     0.005394
AU878   AU        0.404569    0.682191    0.259088     0.007504
AU879   AU        0.401500    0.714411    0.292588     0.007504
AU880   AU        0.435507    0.682038    0.294415     0.007504
AU881   AU        0.435722    0.717998    0.259826     0.007504
AU882   AU        0.468116    0.681364    0.260508     0.007504
AU883   AU        0.468863    0.715979    0.295261     0.007504
PD884   PD        0.500946    0.682172    0.293895     0.005394
PD885   PD        0.502116    0.715117    0.261544     0.005394
AU886   AU        0.533911    0.682532    0.261000     0.007504
AU887   AU        0.535541    0.716853    0.293328     0.007504
PD888   PD        0.566458    0.682264    0.292039     0.005394
AU889   AU        0.567610    0.716943    0.260340     0.007504
AU890   AU        0.600137    0.680852    0.260893     0.007504
PD891   PD        0.598611    0.715242    0.293778     0.005394
PD892   PD        0.633617    0.680733    0.292048     0.005394
PD893   PD        0.633883    0.716353    0.260652     0.005394
AU894   AU        0.669303    0.682796    0.260830     0.007504
AU895   AU        0.665838    0.714193    0.293866     0.007504
AU896   AU        0.702081    0.680697    0.293619     0.007504
AU897   AU        0.699716    0.718579    0.262308     0.007504
AU898   AU        0.733376    0.682074    0.261720     0.007504
AU899   AU        0.732364    0.716821    0.294554     0.007504
PD900   PD        0.769016    0.683880    0.294768     0.005394
PD901   PD        0.209089    0.776559    0.266252     0.005394
AU902   AU        0.273196    0.751747    0.261937     0.007504
PD903   PD        0.272326    0.787539    0.295819     0.005394
AU904   AU        0.305144    0.753489    0.293607     0.007504
AU905   AU        0.274325    0.787428    0.226729     0.007504
PD906   PD        0.338096    0.755025    0.260433     0.005394
PD907   PD        0.336858    0.784664    0.296563     0.005394
PD908   PD        0.369700    0.750101    0.294596     0.005394
PD909   PD        0.368928    0.784472    0.260361     0.005394
AU910   AU        0.401742    0.751764    0.260406     0.007504
AU911   AU        0.403076    0.787117    0.294769     0.007504
AU912   AU        0.435392    0.751971    0.292609     0.007504
PD913   PD        0.435520    0.785468    0.261713     0.005394
AU914   AU        0.468550    0.750134    0.262160     0.007504
AU915   AU        0.466450    0.788412    0.293382     0.007504
PD916   PD        0.500658    0.748783    0.291694     0.005394
AU917   AU        0.500533    0.787223    0.262087     0.007504
PD918   PD        0.533810    0.751541    0.260478     0.005394
AU919   AU        0.535320    0.786512    0.293666     0.007504
AU920   AU        0.568219    0.752119    0.292738     0.007504
AU921   AU        0.569569    0.786911    0.259497     0.007504
AU922   AU        0.601883    0.751045    0.259424     0.007504
AU923   AU        0.601868    0.788155    0.293875     0.007504
PD924   PD        0.632226    0.755042    0.293197     0.005394
PD925   PD        0.634222    0.790709    0.259402     0.005394
AU926   AU        0.667419    0.749840    0.262226     0.007504
PD927   PD        0.665720    0.787234    0.294982     0.005394
PD928   PD        0.699309    0.753313    0.297499     0.005394
PD929   PD        0.299338    0.827348    0.295289     0.005394
AU930   AU        0.369745    0.822119    0.292293     0.007504
AU931   AU        0.404786    0.822449    0.262946     0.007504
PD932   PD        0.405215    0.859312    0.295427     0.005394
AU933   AU        0.435089    0.823636    0.296268     0.007504
PD934   PD        0.466600    0.824092    0.262847     0.005394
PD935   PD        0.470432    0.856135    0.294802     0.005394
AU936   AU        0.500893    0.821327    0.296104     0.007504
PD937   PD        0.534500    0.821901    0.260963     0.005394
AU938   AU        0.533864    0.856654    0.292542     0.007504
AU939   AU        0.566272    0.821058    0.292691     0.007504
PD940   PD        0.630965    0.827177    0.294026     0.005394
PD941   PD        0.334084    0.075642    0.362748     0.005394
PD942   PD        0.369012    0.074775    0.325356     0.005394
AU943   AU        0.399568    0.074119    0.359514     0.007504
PD944   PD        0.436622    0.075775    0.326926     0.005394
PD945   PD        0.469147    0.076292    0.358823     0.005394
PD946   PD        0.534865    0.041922    0.324902     0.005394
AU947   AU        0.536474    0.075062    0.357158     0.007504
PD948   PD        0.568696    0.080533    0.326457     0.005394
AU949   AU        0.601038    0.078197    0.360727     0.007504
PD950   PD        0.237328    0.144472    0.325813     0.005394
PD951   PD        0.269559    0.149239    0.360255     0.005394
AU952   AU        0.301573    0.113162    0.357940     0.007504
AU953   AU        0.304068    0.148697    0.325584     0.007504
AU954   AU        0.336492    0.109792    0.326345     0.007504
PD955   PD        0.335361    0.147611    0.359958     0.005394
AU956   AU        0.368015    0.111182    0.360615     0.007504
PD957   PD        0.368459    0.146998    0.324583     0.005394
AU958   AU        0.403369    0.111515    0.328265     0.007504
AU959   AU        0.402630    0.146217    0.358466     0.007504
PD960   PD        0.433123    0.110251    0.360743     0.005394
AU961   AU        0.436084    0.146744    0.327555     0.007504
AU962   AU        0.467124    0.112153    0.328540     0.007504
PD963   PD        0.467410    0.145981    0.361074     0.005394
AU964   AU        0.502013    0.110897    0.358227     0.007504
PD965   PD        0.502733    0.146185    0.329392     0.005394
AU966   AU        0.535584    0.111608    0.325978     0.007504
PD967   PD        0.536658    0.149338    0.360923     0.005394
PD968   PD        0.567695    0.112632    0.359465     0.005394
AU969   AU        0.567335    0.147249    0.325073     0.007504
AU970   AU        0.601938    0.113476    0.327474     0.007504
PD971   PD        0.601384    0.148098    0.359542     0.005394
AU972   AU        0.633473    0.110959    0.361954     0.007504
AU973   AU        0.633761    0.147539    0.327361     0.007504
AU974   AU        0.665250    0.146506    0.360000     0.007504
PD975   PD        0.698405    0.147623    0.328780     0.005394
AU976   AU        0.172119    0.217046    0.324773     0.007504
PD977   PD        0.204974    0.182393    0.327520     0.005394
AU978   AU        0.204359    0.219134    0.358068     0.007504
AU979   AU        0.236901    0.183476    0.358562     0.007504
AU980   AU        0.235376    0.219263    0.325806     0.007504
AU981   AU        0.269082    0.183666    0.325003     0.007504
PD982   PD        0.267394    0.219200    0.358727     0.005394
PD983   PD        0.301611    0.183523    0.359094     0.005394
AU984   AU        0.303235    0.216156    0.326418     0.007504
PD985   PD        0.336442    0.182183    0.323784     0.005394
AU986   AU        0.335558    0.218196    0.358267     0.007504
PD987   PD        0.369801    0.184185    0.361951     0.005394
AU988   AU        0.368831    0.219279    0.325231     0.007504
AU989   AU        0.403129    0.182078    0.326146     0.007504
PD990   PD        0.400638    0.219005    0.358285     0.005394
AU991   AU        0.434293    0.183040    0.359308     0.007504
PD992   PD        0.435749    0.218790    0.327944     0.005394
AU993   AU        0.467448    0.182049    0.328633     0.007504
AU994   AU        0.468858    0.218144    0.360601     0.007504
AU995   AU        0.500788    0.185189    0.358821     0.007504
AU996   AU        0.500311    0.217796    0.325618     0.007504
AU997   AU        0.535626    0.181547    0.327304     0.007504
PD998   PD        0.533865    0.218205    0.362873     0.005394
PD999   PD        0.570499    0.182735    0.359507     0.005394
AU1000   AU        0.568486    0.218590    0.326431     0.007504
AU1001   AU        0.600651    0.183337    0.326293     0.007504
PD1002   PD        0.599442    0.217896    0.359490     0.005394
PD1003   PD        0.633441    0.182572    0.359025     0.005394
PD1004   PD        0.635133    0.219508    0.326377     0.005394
AU1005   AU        0.666698    0.183197    0.327459     0.007504
AU1006   AU        0.666147    0.217325    0.359630     0.007504
AU1007   AU        0.697574    0.182387    0.360063     0.007504
AU1008   AU        0.699941    0.217550    0.326539     0.007504
PD1009   PD        0.734503    0.179417    0.328845     0.005394
AU1010   AU        0.734540    0.217777    0.359664     0.007504
PD1011   PD        0.766735    0.217777    0.327376     0.005394
PD1012   PD        0.137315    0.290153    0.359851     0.005394
PD1013   PD        0.172072    0.251220    0.360284     0.005394
AU1014   AU        0.169281    0.291010    0.325552     0.007504
AU1015   AU        0.202929    0.253158    0.325028     0.007504
AU1016   AU        0.201243    0.289891    0.358026     0.007504
PD1017   PD        0.239744    0.255700    0.360025     0.005394
PD1018   PD        0.236108    0.287052    0.325683     0.005394
PD1019   PD        0.270261    0.253191    0.324335     0.005394
AU1020   AU        0.268478    0.287351    0.359652     0.007504
AU1021   AU        0.301318    0.254016    0.359140     0.007504
PD1022   PD        0.302841    0.286368    0.325364     0.005394
PD1023   PD        0.334664    0.253481    0.326490     0.005394
PD1024   PD        0.336752    0.289928    0.362074     0.005394
PD1025   PD        0.367005    0.254168    0.357276     0.005394
AU1026   AU        0.368123    0.289130    0.325801     0.007504
PD1027   PD        0.401375    0.254796    0.325293     0.005394
AU1028   AU        0.401231    0.291512    0.358537     0.007504
PD1029   PD        0.435752    0.253688    0.359001     0.005394
AU1030   AU        0.433774    0.291363    0.326847     0.007504
PD1031   PD        0.469727    0.253108    0.326189     0.005394
AU1032   AU        0.469247    0.290605    0.358997     0.007504
PD1033   PD        0.500804    0.252517    0.360424     0.005394
PD1034   PD        0.500618    0.290223    0.327028     0.005394
PD1035   PD        0.536290    0.254321    0.326715     0.005394
PD1036   PD        0.534055    0.287848    0.359508     0.005394
AU1037   AU        0.568601    0.254106    0.359451     0.007504
AU1038   AU        0.568062    0.290537    0.326096     0.007504
PD1039   PD        0.599649    0.254786    0.324303     0.005394
AU1040   AU        0.599508    0.290272    0.359716     0.007504
PD1041   PD        0.633273    0.256050    0.358699     0.005394
AU1042   AU        0.634409    0.290744    0.325165     0.007504
PD1043   PD        0.669691    0.254838    0.328258     0.005394
AU1044   AU        0.666175    0.290480    0.362738     0.007504
AU1045   AU        0.699726    0.253381    0.361002     0.007504
PD1046   PD        0.700856    0.290745    0.327501     0.005394
PD1047   PD        0.732097    0.253947    0.327885     0.005394
PD1048   PD        0.730223    0.290104    0.360947     0.005394
AU1049   AU        0.766419    0.255169    0.358866     0.007504
AU1050   AU        0.765029    0.290559    0.326440     0.007504
AU1051   AU        0.797959    0.290853    0.360917     0.007504
PD1052   PD        0.103497    0.323118    0.361876     0.005394
PD1053   PD        0.101486    0.359175    0.324669     0.005394
AU1054   AU        0.135345    0.325881    0.326214     0.007504
AU1055   AU        0.136616    0.362369    0.358052     0.007504
PD1056   PD        0.170989    0.326658    0.360231     0.005394
AU1057   AU        0.170967    0.361950    0.325857     0.007504
PD1058   PD        0.200589    0.325449    0.323818     0.005394
PD1059   PD        0.204145    0.361954    0.358428     0.005394
AU1060   AU        0.233793    0.324156    0.358250     0.007504
AU1061   AU        0.236267    0.361305    0.327975     0.007504
AU1062   AU        0.268585    0.324133    0.326880     0.007504
PD1063   PD        0.268823    0.361894    0.360491     0.005394
PD1064   PD        0.303275    0.325815    0.360182     0.005394
AU1065   AU        0.301483    0.361614    0.328937     0.007504
PD1066   PD        0.334628    0.323062    0.327804     0.005394
PD1067   PD        0.334579    0.361627    0.357497     0.005394
PD1068   PD        0.366816    0.326441    0.360137     0.005394
AU1069   AU        0.368710    0.363091    0.328076     0.007504
PD1070   PD        0.399388    0.327208    0.327658     0.005394
AU1071   AU        0.400882    0.360647    0.359892     0.007504
AU1072   AU        0.435848    0.325743    0.358919     0.007504
PD1073   PD        0.436769    0.360137    0.328104     0.005394
AU1074   AU        0.470161    0.325857    0.327751     0.007504
AU1075   AU        0.469775    0.360890    0.359724     0.007504
AU1076   AU        0.503700    0.325215    0.360354     0.007504
PD1077   PD        0.500635    0.361631    0.329920     0.005394
PD1078   PD        0.534079    0.326547    0.326829     0.005394
AU1079   AU        0.535888    0.361564    0.361741     0.007504
AU1080   AU        0.568114    0.324772    0.359565     0.007504
PD1081   PD        0.570334    0.361740    0.325950     0.005394
AU1082   AU        0.602021    0.324187    0.324787     0.007504
AU1083   AU        0.598941    0.360449    0.359657     0.007504
AU1084   AU        0.633644    0.325496    0.360661     0.007504
AU1085   AU        0.634461    0.362031    0.328680     0.007504
PD1086   PD        0.667748    0.323126    0.324734     0.005394
AU1087   AU        0.667215    0.362908    0.362455     0.007504
PD1088   PD        0.698594    0.324280    0.357702     0.005394
AU1089   AU        0.700409    0.363150    0.327537     0.007504
AU1090   AU        0.732784    0.328292    0.326808     0.007504
PD1091   PD        0.733917    0.360852    0.360362     0.005394
PD1092   PD        0.766468    0.326506    0.358587     0.005394
AU1093   AU        0.766213    0.361043    0.326647     0.007504
PD1094   PD        0.797899    0.327822    0.327596     0.005394
AU1095   AU        0.799239    0.360685    0.359930     0.007504
AU1096   AU        0.832254    0.325225    0.361251     0.007504
AU1097   AU        0.833048    0.360907    0.327549     0.007504
AU1098   AU        0.098309    0.401079    0.363296     0.007504
PD1099   PD        0.102414    0.434944    0.328116     0.005394
PD1100   PD        0.134110    0.398763    0.325996     0.005394
AU1101   AU        0.136834    0.429945    0.359945     0.007504
PD1102   PD        0.167086    0.399483    0.361266     0.005394
AU1103   AU        0.171136    0.433933    0.327670     0.007504
PD1104   PD        0.203008    0.396782    0.328759     0.005394
AU1105   AU        0.204260    0.433622    0.359597     0.007504
PD1106   PD        0.235767    0.395168    0.363186     0.005394
AU1107   AU        0.237945    0.434851    0.326925     0.007504
PD1108   PD        0.267085    0.397535    0.328046     0.005394
PD1109   PD        0.270791    0.433830    0.362754     0.005394
PD1110   PD        0.301151    0.398510    0.359518     0.005394
AU1111   AU        0.299751    0.433928    0.326874     0.007504
AU1112   AU        0.335827    0.397351    0.326805     0.007504
PD1113   PD        0.334729    0.432058    0.357781     0.005394
AU1114   AU        0.368556    0.398295    0.360808     0.007504
AU1115   AU        0.369771    0.432925    0.325699     0.007504
AU1116   AU        0.403038    0.397034    0.325461     0.007504
AU1117   AU        0.403226    0.430535    0.358255     0.007504
PD1118   PD        0.435796    0.394096    0.360154     0.005394
PD1119   PD        0.437081    0.432132    0.328393     0.005394
AU1120   AU        0.467852    0.395703    0.326059     0.007504
AU1121   AU        0.468646    0.432384    0.361962     0.007504
PD1122   PD        0.501783    0.397532    0.360390     0.005394
AU1123   AU        0.500780    0.429451    0.327534     0.007504
AU1124   AU        0.537972    0.395153    0.327522     0.007504
AU1125   AU        0.534711    0.431998    0.358650     0.007504
AU1126   AU        0.567718    0.398238    0.360037     0.007504
AU1127   AU        0.567144    0.433247    0.327386     0.007504
AU1128   AU        0.599669    0.398895    0.329602     0.007504
PD1129   PD        0.600471    0.432441    0.361961     0.005394
AU1130   AU        0.635012    0.397498    0.362118     0.007504
AU1131   AU        0.633790    0.430108    0.327808     0.007504
AU1132   AU        0.668776    0.397705    0.327162     0.007504
AU1133   AU        0.667152    0.433249    0.359063     0.007504
AU1134   AU        0.701268    0.398374    0.359640     0.007504
PD1135   PD        0.700917    0.435196    0.327051     0.005394
AU1136   AU        0.733188    0.396744    0.327374     0.007504
AU1137   AU        0.733915    0.431082    0.361561     0.007504
AU1138   AU        0.767462    0.395581    0.361196     0.007504
PD1139   PD        0.766402    0.432805    0.327202     0.005394
PD1140   PD        0.801763    0.396929    0.326519     0.005394
PD1141   PD        0.801446    0.427766    0.359545     0.005394
PD1142   PD        0.834446    0.396963    0.360890     0.005394
PD1143   PD        0.866482    0.431776    0.295515     0.005394
AU1144   AU        0.108223    0.467958    0.360874     0.007504
PD1145   PD        0.102619    0.503579    0.327839     0.005394
PD1146   PD        0.137435    0.467417    0.326449     0.005394
PD1147   PD        0.138523    0.503822    0.358914     0.005394
AU1148   AU        0.170019    0.468918    0.360246     0.007504
PD1149   PD        0.170666    0.506432    0.326904     0.005394
PD1150   PD        0.203860    0.469196    0.324794     0.005394
AU1151   AU        0.201665    0.504473    0.359566     0.007504
AU1152   AU        0.234391    0.469480    0.358277     0.007504
AU1153   AU        0.237299    0.504859    0.326610     0.007504
AU1154   AU        0.268815    0.470150    0.326449     0.007504
PD1155   PD        0.271160    0.506140    0.359893     0.005394
PD1156   PD        0.302469    0.471485    0.359231     0.005394
PD1157   PD        0.302573    0.504478    0.326146     0.005394
AU1158   AU        0.337761    0.468123    0.326918     0.007504
AU1159   AU        0.334253    0.504704    0.359738     0.007504
PD1160   PD        0.369603    0.469104    0.360656     0.005394
AU1161   AU        0.369047    0.505832    0.326798     0.007504
PD1162   PD        0.403467    0.470212    0.324157     0.005394
PD1163   PD        0.401653    0.499450    0.358842     0.005394
AU1164   AU        0.434675    0.467312    0.361382     0.007504
AU1165   AU        0.436200    0.504822    0.328330     0.007504
AU1166   AU        0.468575    0.469337    0.326578     0.007504
AU1167   AU        0.467703    0.502497    0.360739     0.007504
PD1168   PD        0.501389    0.465630    0.358083     0.005394
AU1169   AU        0.499719    0.502767    0.328857     0.007504
PD1170   PD        0.534218    0.466690    0.328178     0.005394
PD1171   PD        0.537223    0.504130    0.360488     0.005394
AU1172   AU        0.569696    0.468804    0.359371     0.007504
AU1173   AU        0.568865    0.501250    0.327394     0.007504
AU1174   AU        0.600967    0.465785    0.326488     0.007504
AU1175   AU        0.600782    0.504768    0.361604     0.007504
AU1176   AU        0.633717    0.468603    0.359187     0.007504
AU1177   AU        0.632790    0.502106    0.325919     0.007504
AU1178   AU        0.666721    0.467834    0.326713     0.007504
AU1179   AU        0.667527    0.502699    0.359629     0.007504
AU1180   AU        0.700675    0.467429    0.360776     0.007504
AU1181   AU        0.700067    0.502737    0.329249     0.007504
AU1182   AU        0.733102    0.466263    0.327152     0.007504
AU1183   AU        0.733342    0.502250    0.359186     0.007504
AU1184   AU        0.765401    0.466373    0.358194     0.007504
AU1185   AU        0.765530    0.502668    0.324851     0.007504
AU1186   AU        0.798752    0.466723    0.325723     0.007504
PD1187   PD        0.797713    0.502828    0.359264     0.005394
AU1188   AU        0.831975    0.469815    0.359015     0.007504
PD1189   PD        0.828792    0.503034    0.325598     0.005394
PD1190   PD        0.105018    0.539507    0.359464     0.005394
PD1191   PD        0.105534    0.576290    0.326174     0.005394
PD1192   PD        0.135455    0.538588    0.324645     0.005394
AU1193   AU        0.136688    0.577330    0.358479     0.007504
PD1194   PD        0.168132    0.538317    0.359561     0.005394
PD1195   PD        0.171208    0.575967    0.327286     0.005394
AU1196   AU        0.201525    0.538843    0.327909     0.007504
PD1197   PD        0.202059    0.576962    0.358828     0.005394
PD1198   PD        0.234333    0.540008    0.358614     0.005394
PD1199   PD        0.236003    0.573784    0.329753     0.005394
AU1200   AU        0.270747    0.537877    0.326878     0.007504
AU1201   AU        0.271401    0.576673    0.360429     0.007504
AU1202   AU        0.302095    0.541190    0.360897     0.007504
AU1203   AU        0.303124    0.576081    0.328519     0.007504
AU1204   AU        0.336210    0.541171    0.325678     0.007504
AU1205   AU        0.336142    0.573826    0.360931     0.007504
PD1206   PD        0.366950    0.538649    0.361268     0.005394
AU1207   AU        0.367641    0.575412    0.326829     0.007504
AU1208   AU        0.402244    0.540786    0.326769     0.007504
AU1209   AU        0.401588    0.574769    0.359431     0.007504
AU1210   AU        0.435497    0.539108    0.359904     0.007504
AU1211   AU        0.433766    0.573730    0.326193     0.007504
PD1212   PD        0.467790    0.538790    0.330423     0.005394
AU1213   AU        0.468456    0.574147    0.360353     0.007504
AU1214   AU        0.501644    0.537892    0.360423     0.007504
AU1215   AU        0.501767    0.572665    0.328547     0.007504
PD1216   PD        0.535393    0.537862    0.326148     0.005394
PD1217   PD        0.534168    0.572846    0.362740     0.005394
AU1218   AU        0.567299    0.538901    0.359708     0.007504
PD1219   PD        0.567235    0.573632    0.327825     0.005394
AU1220   AU        0.601942    0.539927    0.327316     0.007504
PD1221   PD        0.601271    0.574644    0.360736     0.005394
PD1222   PD        0.637837    0.537274    0.358320     0.005394
PD1223   PD        0.635571    0.577721    0.328832     0.005394
PD1224   PD        0.666573    0.537493    0.326116     0.005394
PD1225   PD        0.669979    0.573772    0.362185     0.005394
PD1226   PD        0.701071    0.536787    0.361815     0.005394
PD1227   PD        0.700431    0.572473    0.327877     0.005394
AU1228   AU        0.732496    0.535903    0.325470     0.007504
AU1229   AU        0.731738    0.573641    0.360633     0.007504
AU1230   AU        0.764991    0.538811    0.360639     0.007504
AU1231   AU        0.763936    0.572888    0.328304     0.007504
AU1232   AU        0.797814    0.539922    0.328148     0.007504
AU1233   AU        0.798953    0.573549    0.360674     0.007504
AU1234   AU        0.831930    0.536986    0.360377     0.007504
AU1235   AU        0.832473    0.571614    0.329010     0.007504
PD1236   PD        0.068175    0.611427    0.392793     0.005394
PD1237   PD        0.138101    0.613045    0.324784     0.005394
PD1238   PD        0.137169    0.646395    0.360062     0.005394
AU1239   AU        0.168867    0.612830    0.358826     0.007504
AU1240   AU        0.170718    0.647847    0.325921     0.007504
AU1241   AU        0.204084    0.611941    0.329476     0.007504
AU1242   AU        0.204795    0.645502    0.361011     0.007504
AU1243   AU        0.237117    0.610775    0.360011     0.007504
AU1244   AU        0.237499    0.647834    0.326379     0.007504
PD1245   PD        0.271008    0.611205    0.328177     0.005394
PD1246   PD        0.268766    0.646544    0.359897     0.005394
AU1247   AU        0.305572    0.610255    0.361500     0.007504
AU1248   AU        0.303644    0.645779    0.326955     0.007504
AU1249   AU        0.334603    0.609905    0.326681     0.007504
AU1250   AU        0.335757    0.647317    0.359380     0.007504
AU1251   AU        0.367161    0.611316    0.359184     0.007504
AU1252   AU        0.368035    0.646424    0.327391     0.007504
AU1253   AU        0.401473    0.611133    0.327564     0.007504
AU1254   AU        0.401358    0.645152    0.361921     0.007504
AU1255   AU        0.433445    0.611081    0.361285     0.007504
AU1256   AU        0.435996    0.645746    0.326771     0.007504
AU1257   AU        0.465868    0.608504    0.326250     0.007504
PD1258   PD        0.466831    0.645229    0.359828     0.005394
AU1259   AU        0.499956    0.609224    0.360057     0.007504
AU1260   AU        0.500795    0.643375    0.329212     0.007504
PD1261   PD        0.534937    0.607531    0.330156     0.005394
PD1262   PD        0.534508    0.645551    0.360715     0.005394
AU1263   AU        0.569505    0.608356    0.360605     0.007504
PD1264   PD        0.567615    0.646690    0.326471     0.005394
PD1265   PD        0.601374    0.610154    0.325553     0.005394
PD1266   PD        0.600477    0.644796    0.359284     0.005394
PD1267   PD        0.635718    0.610908    0.361641     0.005394
AU1268   AU        0.635687    0.644779    0.326943     0.007504
AU1269   AU        0.668199    0.609271    0.326979     0.007504
AU1270   AU        0.666465    0.646742    0.359596     0.007504
AU1271   AU        0.700041    0.609792    0.359992     0.007504
AU1272   AU        0.700486    0.645131    0.327939     0.007504
AU1273   AU        0.732075    0.607571    0.328386     0.007504
AU1274   AU        0.733822    0.644360    0.359933     0.007504
AU1275   AU        0.766994    0.609290    0.359057     0.007504
PD1276   PD        0.766675    0.645716    0.326322     0.005394
PD1277   PD        0.802086    0.607069    0.329572     0.005394
AU1278   AU        0.799095    0.645995    0.358261     0.007504
AU1279   AU        0.830414    0.610050    0.360642     0.007504
AU1280   AU        0.168776    0.681668    0.360402     0.007504
AU1281   AU        0.169372    0.718001    0.330713     0.007504
AU1282   AU        0.203058    0.679641    0.326439     0.007504
PD1283   PD        0.204309    0.715180    0.359082     0.005394
PD1284   PD        0.239092    0.680000    0.358634     0.005394
PD1285   PD        0.239680    0.719099    0.327016     0.005394
AU1286   AU        0.270496    0.682400    0.327706     0.007504
PD1287   PD        0.269173    0.717441    0.362428     0.005394
PD1288   PD        0.301685    0.683818    0.360424     0.005394
PD1289   PD        0.304178    0.716521    0.326863     0.005394
AU1290   AU        0.336458    0.682140    0.328053     0.007504
AU1291   AU        0.336428    0.716394    0.360132     0.007504
AU1292   AU        0.368581    0.680580    0.361603     0.007504
AU1293   AU        0.370875    0.716110    0.325653     0.007504
AU1294   AU        0.401954    0.680193    0.327113     0.007504
PD1295   PD        0.400769    0.715759    0.360157     0.005394
AU1296   AU        0.432811    0.678723    0.360373     0.007504
AU1297   AU        0.433800    0.715441    0.326872     0.007504
AU1298   AU        0.469040    0.680920    0.327515     0.007504
AU1299   AU        0.467230    0.716189    0.361071     0.007504
PD1300   PD        0.502563    0.678983    0.360326     0.005394
AU1301   AU        0.500107    0.716854    0.326669     0.007504
AU1302   AU        0.532895    0.679167    0.326910     0.007504
AU1303   AU        0.534158    0.716741    0.360435     0.007504
PD1304   PD        0.568462    0.679882    0.360797     0.005394
PD1305   PD        0.566446    0.714435    0.326567     0.005394
PD1306   PD        0.598952    0.681237    0.327373     0.005394
PD1307   PD        0.598935    0.716070    0.358994     0.005394
PD1308   PD        0.632733    0.679721    0.358125     0.005394
PD1309   PD        0.633559    0.716082    0.328202     0.005394
PD1310   PD        0.667699    0.681197    0.327007     0.005394
PD1311   PD        0.667387    0.716838    0.361121     0.005394
PD1312   PD        0.700040    0.679873    0.361388     0.005394
AU1313   AU        0.700782    0.715762    0.327267     0.007504
AU1314   AU        0.732937    0.680432    0.326178     0.007504
PD1315   PD        0.732419    0.717348    0.359097     0.005394
AU1316   AU        0.765534    0.683383    0.359151     0.007504
PD1317   PD        0.761994    0.719137    0.327959     0.005394
PD1318   PD        0.206144    0.752763    0.326113     0.005394
AU1319   AU        0.237656    0.754959    0.360644     0.007504
PD1320   PD        0.236715    0.786695    0.323529     0.005394
PD1321   PD        0.269141    0.750564    0.329357     0.005394
PD1322   PD        0.271209    0.790162    0.358816     0.005394
PD1323   PD        0.300912    0.751951    0.362915     0.005394
AU1324   AU        0.303633    0.786766    0.327034     0.007504
AU1325   AU        0.338393    0.750546    0.327920     0.007504
PD1326   PD        0.336498    0.784886    0.360116     0.005394
PD1327   PD        0.370872    0.750830    0.360219     0.005394
PD1328   PD        0.371617    0.788461    0.328952     0.005394
AU1329   AU        0.401119    0.750876    0.325891     0.007504
AU1330   AU        0.403311    0.788572    0.359785     0.007504
AU1331   AU        0.435386    0.751047    0.359216     0.007504
AU1332   AU        0.433749    0.787219    0.328218     0.007504
AU1333   AU        0.467034    0.750937    0.326621     0.007504
PD1334   PD        0.465948    0.784801    0.359035     0.005394
PD1335   PD        0.499327    0.750990    0.361036     0.005394
AU1336   AU        0.500079    0.783875    0.326143     0.007504
AU1337   AU        0.534604    0.752190    0.325890     0.007504
PD1338   PD        0.532074    0.788779    0.358964     0.005394
PD1339   PD        0.568402    0.755889    0.358952     0.005394
AU1340   AU        0.566820    0.787267    0.324584     0.007504
AU1341   AU        0.601841    0.752144    0.325140     0.007504
AU1342   AU        0.600630    0.788957    0.358278     0.007504
PD1343   PD        0.633032    0.750216    0.362505     0.005394
PD1344   PD        0.632873    0.790173    0.325222     0.005394
AU1345   AU        0.666141    0.749342    0.327915     0.007504
PD1346   PD        0.666422    0.786368    0.362383     0.005394
AU1347   AU        0.698891    0.752340    0.360197     0.007504
PD1348   PD        0.699195    0.788663    0.328401     0.005394
PD1349   PD        0.737327    0.790232    0.300288     0.005394
AU1350   AU        0.306506    0.823660    0.361213     0.007504
AU1351   AU        0.336751    0.818606    0.329493     0.007504
PD1352   PD        0.338154    0.861108    0.356250     0.005394
AU1353   AU        0.368864    0.823659    0.360983     0.007504
PD1354   PD        0.368927    0.858533    0.325135     0.005394
AU1355   AU        0.402799    0.822740    0.328023     0.007504
PD1356   PD        0.400614    0.859846    0.359855     0.005394
AU1357   AU        0.434534    0.823232    0.359899     0.007504
AU1358   AU        0.437485    0.858668    0.328313     0.007504
AU1359   AU        0.467849    0.820948    0.328472     0.007504
AU1360   AU        0.470267    0.857893    0.359201     0.007504
AU1361   AU        0.501249    0.821877    0.359767     0.007504
AU1362   AU        0.501551    0.857780    0.327671     0.007504
AU1363   AU        0.534111    0.825702    0.324603     0.007504
PD1364   PD        0.530868    0.859310    0.361412     0.005394
AU1365   AU        0.565272    0.823888    0.357649     0.007504
AU1366   AU        0.567607    0.859373    0.325665     0.007504
AU1367   AU        0.598896    0.823648    0.324817     0.007504
PD1368   PD        0.599750    0.855175    0.359430     0.005394
PD1369   PD        0.664652    0.821190    0.328032     0.005394
PD1370   PD        0.299967    0.074003    0.391675     0.005394
PD1371   PD        0.335452    0.075577    0.427078     0.005394
AU1372   AU        0.368180    0.076589    0.395601     0.007504
PD1373   PD        0.403828    0.075944    0.429294     0.005394
AU1374   AU        0.435670    0.039822    0.427217     0.007504
AU1375   AU        0.435148    0.075940    0.391820     0.007504
AU1376   AU        0.466070    0.037285    0.394906     0.007504
PD1377   PD        0.468944    0.076754    0.426380     0.005394
AU1378   AU        0.501637    0.042119    0.425186     0.007504
AU1379   AU        0.504167    0.076097    0.393849     0.007504
PD1380   PD        0.534989    0.075910    0.427371     0.005394
AU1381   AU        0.567307    0.076331    0.391139     0.007504
AU1382   AU        0.600720    0.076579    0.426315     0.007504
AU1383   AU        0.633245    0.075242    0.395376     0.007504
PD1384   PD        0.202484    0.144940    0.423948     0.005394
PD1385   PD        0.232803    0.110017    0.428236     0.005394
PD1386   PD        0.183645    0.098708    0.419607     0.005394
PD1387   PD        0.267290    0.110421    0.391018     0.005394
PD1388   PD        0.266721    0.146780    0.425380     0.005394
PD1389   PD        0.301738    0.111011    0.429288     0.005394
AU1390   AU        0.302131    0.148286    0.391383     0.007504
AU1391   AU        0.333059    0.110899    0.394586     0.007504
AU1392   AU        0.332749    0.147184    0.428216     0.007504
PD1393   PD        0.366177    0.111807    0.427427     0.005394
PD1394   PD        0.367102    0.144331    0.392965     0.005394
AU1395   AU        0.400046    0.110768    0.392940     0.007504
PD1396   PD        0.401715    0.145542    0.425099     0.005394
PD1397   PD        0.437019    0.108962    0.426711     0.005394
PD1398   PD        0.436799    0.145651    0.392758     0.005394
PD1399   PD        0.470776    0.111482    0.393762     0.005394
AU1400   AU        0.466874    0.144968    0.424698     0.007504
PD1401   PD        0.503873    0.111985    0.426238     0.005394
PD1402   PD        0.502166    0.146627    0.389264     0.005394
AU1403   AU        0.534681    0.112343    0.393362     0.007504
AU1404   AU        0.535479    0.147767    0.426068     0.007504
AU1405   AU        0.566732    0.109975    0.425529     0.007504
AU1406   AU        0.568046    0.147640    0.392733     0.007504
AU1407   AU        0.599532    0.110546    0.393327     0.007504
AU1408   AU        0.599003    0.145270    0.425392     0.007504
AU1409   AU        0.632405    0.110479    0.426876     0.007504
AU1410   AU        0.632676    0.145919    0.393006     0.007504
AU1411   AU        0.664263    0.111805    0.393548     0.007504
AU1412   AU        0.666888    0.145873    0.426382     0.007504
PD1413   PD        0.698731    0.108212    0.425931     0.005394
AU1414   AU        0.698224    0.148340    0.391916     0.007504
PD1415   PD        0.731185    0.143933    0.424806     0.005394
PD1416   PD        0.135246    0.219390    0.424119     0.005394
PD1417   PD        0.170847    0.184087    0.422690     0.005394
PD1418   PD        0.170092    0.216472    0.391029     0.005394
AU1419   AU        0.205110    0.180289    0.390809     0.007504
AU1420   AU        0.203213    0.218085    0.424926     0.007504
PD1421   PD        0.235981    0.183437    0.425130     0.005394
AU1422   AU        0.233338    0.217378    0.391377     0.007504
PD1423   PD        0.269034    0.184360    0.394735     0.005394
PD1424   PD        0.268189    0.217890    0.425538     0.005394
PD1425   PD        0.302764    0.181171    0.425574     0.005394
AU1426   AU        0.303456    0.218124    0.391407     0.007504
AU1427   AU        0.336693    0.183231    0.393873     0.007504
PD1428   PD        0.336169    0.216948    0.425634     0.005394
AU1429   AU        0.368968    0.180497    0.425910     0.007504
AU1430   AU        0.369678    0.218845    0.392635     0.007504
PD1431   PD        0.402231    0.183166    0.392269     0.005394
AU1432   AU        0.402015    0.217509    0.426716     0.007504
PD1433   PD        0.434905    0.181669    0.427012     0.005394
AU1434   AU        0.435399    0.218669    0.392595     0.007504
AU1435   AU        0.468203    0.182601    0.392720     0.007504
PD1436   PD        0.469479    0.218503    0.426697     0.005394
PD1437   PD        0.501284    0.182161    0.423971     0.005394
AU1438   AU        0.502165    0.218826    0.392688     0.007504
AU1439   AU        0.533850    0.181338    0.394165     0.007504
AU1440   AU        0.533374    0.219300    0.426547     0.007504
AU1441   AU        0.568101    0.181614    0.426109     0.007504
PD1442   PD        0.567215    0.219079    0.394997     0.005394
PD1443   PD        0.600748    0.180300    0.391862     0.005394
PD1444   PD        0.601171    0.219483    0.425324     0.005394
PD1445   PD        0.633656    0.180020    0.425337     0.005394
PD1446   PD        0.635371    0.221861    0.391704     0.005394
AU1447   AU        0.665753    0.182481    0.394315     0.007504
PD1448   PD        0.667034    0.217760    0.425042     0.005394
PD1449   PD        0.698976    0.183104    0.427628     0.005394
AU1450   AU        0.700773    0.216612    0.392669     0.007504
PD1451   PD        0.730357    0.182584    0.391951     0.005394
AU1452   AU        0.733092    0.220590    0.426090     0.007504
PD1453   PD        0.804118    0.154607    0.425915     0.005394
PD1454   PD        0.765132    0.220745    0.393270     0.005394
PD1455   PD        0.803596    0.220681    0.429340     0.005394
PD1456   PD        0.098009    0.295298    0.398956     0.005394
PD1457   PD        0.135883    0.252112    0.387614     0.005394
AU1458   AU        0.139099    0.294620    0.428081     0.007504
PD1459   PD        0.166640    0.254375    0.427220     0.005394
PD1460   PD        0.169066    0.289744    0.391883     0.005394
PD1461   PD        0.200156    0.254650    0.393342     0.005394
PD1462   PD        0.200336    0.291277    0.426408     0.005394
PD1463   PD        0.237074    0.256071    0.424092     0.005394
PD1464   PD        0.234919    0.288019    0.389489     0.005394
AU1465   AU        0.270742    0.253132    0.395181     0.007504
PD1466   PD        0.267433    0.289187    0.426243     0.005394
PD1467   PD        0.302961    0.254610    0.426200     0.005394
PD1468   PD        0.301245    0.288076    0.394301     0.005394
PD1469   PD        0.336158    0.253573    0.393582     0.005394
AU1470   AU        0.335350    0.289715    0.427896     0.007504
PD1471   PD        0.367959    0.253725    0.428570     0.005394
PD1472   PD        0.368248    0.290652    0.392996     0.005394
AU1473   AU        0.402389    0.254532    0.391880     0.007504
PD1474   PD        0.399997    0.289353    0.426418     0.005394
PD1475   PD        0.432196    0.253820    0.428845     0.005394
PD1476   PD        0.437147    0.287742    0.394229     0.005394
AU1477   AU        0.468970    0.255253    0.394160     0.007504
AU1478   AU        0.469676    0.292183    0.426070     0.007504
AU1479   AU        0.501829    0.255903    0.426598     0.007504
AU1480   AU        0.503145    0.290544    0.394078     0.007504
AU1481   AU        0.534256    0.255267    0.394739     0.007504
AU1482   AU        0.536221    0.290261    0.427475     0.007504
AU1483   AU        0.569349    0.254461    0.426400     0.007504
AU1484   AU        0.568543    0.290793    0.394314     0.007504
AU1485   AU        0.602072    0.255995    0.392868     0.007504
AU1486   AU        0.602406    0.292035    0.426337     0.007504
PD1487   PD        0.633404    0.255645    0.426578     0.005394
PD1488   PD        0.634556    0.292422    0.392822     0.005394
PD1489   PD        0.668853    0.254626    0.391802     0.005394
AU1490   AU        0.666159    0.291174    0.425415     0.007504
AU1491   AU        0.699226    0.253003    0.424502     0.007504
AU1492   AU        0.698536    0.292105    0.393010     0.007504
AU1493   AU        0.734848    0.253601    0.391920     0.007504
AU1494   AU        0.732828    0.288944    0.427793     0.007504
AU1495   AU        0.766515    0.254998    0.426680     0.007504
AU1496   AU        0.764899    0.290526    0.393536     0.007504
PD1497   PD        0.798497    0.258571    0.395179     0.005394
AU1498   AU        0.797384    0.291366    0.427983     0.007504
PD1499   PD        0.833236    0.290492    0.394998     0.005394
PD1500   PD        0.084647    0.337291    0.441467     0.005394
AU1501   AU        0.105664    0.362465    0.394190     0.007504
PD1502   PD        0.133622    0.326150    0.389358     0.005394
PD1503   PD        0.137802    0.364778    0.425975     0.005394
PD1504   PD        0.166541    0.323830    0.427863     0.005394
PD1505   PD        0.168918    0.360332    0.394968     0.005394
PD1506   PD        0.202531    0.323432    0.392778     0.005394
PD1507   PD        0.202198    0.360561    0.426794     0.005394
AU1508   AU        0.233452    0.324911    0.425411     0.007504
PD1509   PD        0.234183    0.359529    0.394989     0.005394
AU1510   AU        0.269268    0.324937    0.390823     0.007504
PD1511   PD        0.268733    0.359597    0.427230     0.005394
PD1512   PD        0.300043    0.323523    0.426764     0.005394
PD1513   PD        0.301352    0.362913    0.392659     0.005394
PD1514   PD        0.334476    0.325046    0.394173     0.005394
AU1515   AU        0.334183    0.360178    0.425860     0.007504
AU1516   AU        0.370092    0.326248    0.430818     0.007504
AU1517   AU        0.368508    0.360886    0.394832     0.007504
PD1518   PD        0.400372    0.325658    0.394691     0.005394
PD1519   PD        0.401565    0.361078    0.426127     0.005394
PD1520   PD        0.435493    0.325510    0.424566     0.005394
AU1521   AU        0.433791    0.361666    0.391841     0.007504
AU1522   AU        0.468056    0.325300    0.391414     0.007504
AU1523   AU        0.468319    0.361415    0.426693     0.007504
AU1524   AU        0.502381    0.326075    0.426053     0.007504
AU1525   AU        0.501650    0.359896    0.393932     0.007504
PD1526   PD        0.535571    0.324149    0.392527     0.005394
AU1527   AU        0.535587    0.359614    0.427564     0.007504
AU1528   AU        0.569782    0.325389    0.426767     0.007504
PD1529   PD        0.568865    0.361927    0.395193     0.005394
AU1530   AU        0.600610    0.325761    0.393990     0.007504
AU1531   AU        0.599647    0.358547    0.428416     0.007504
PD1532   PD        0.633180    0.325715    0.427502     0.005394
PD1533   PD        0.634361    0.361211    0.392522     0.005394
AU1534   AU        0.668799    0.326253    0.392856     0.007504
AU1535   AU        0.667899    0.358790    0.425797     0.007504
AU1536   AU        0.701268    0.324123    0.426575     0.007504
PD1537   PD        0.702057    0.361157    0.390956     0.005394
PD1538   PD        0.732308    0.324726    0.391898     0.005394
AU1539   AU        0.733481    0.362406    0.426894     0.007504
AU1540   AU        0.764876    0.325039    0.424518     0.007504
AU1541   AU        0.766226    0.360877    0.393848     0.007504
AU1542   AU        0.797597    0.324862    0.393092     0.007504
AU1543   AU        0.797434    0.362326    0.427944     0.007504
AU1544   AU        0.831559    0.324871    0.424547     0.007504
AU1545   AU        0.830635    0.360187    0.394262     0.007504
PD1546   PD        0.068766    0.433661    0.427716     0.005394
PD1547   PD        0.105210    0.397221    0.425578     0.005394
AU1548   AU        0.101940    0.434344    0.395512     0.007504
AU1549   AU        0.138571    0.397370    0.392338     0.007504
PD1550   PD        0.137381    0.432637    0.425292     0.005394
PD1551   PD        0.169092    0.399057    0.423668     0.005394
AU1552   AU        0.170370    0.435140    0.393030     0.007504
AU1553   AU        0.201302    0.395880    0.393011     0.007504
AU1554   AU        0.203769    0.432065    0.426457     0.007504
PD1555   PD        0.235577    0.398025    0.427637     0.005394
PD1556   PD        0.237822    0.430723    0.393762     0.005394
AU1557   AU        0.268377    0.395940    0.393812     0.007504
AU1558   AU        0.269917    0.430782    0.428093     0.007504
PD1559   PD        0.303250    0.398081    0.426409     0.005394
PD1560   PD        0.301747    0.435780    0.395589     0.005394
PD1561   PD        0.334026    0.397989    0.391456     0.005394
PD1562   PD        0.334889    0.434000    0.429462     0.005394
PD1563   PD        0.365775    0.399141    0.422535     0.005394
PD1564   PD        0.367545    0.434510    0.392348     0.005394
AU1565   AU        0.399503    0.395225    0.391808     0.007504
PD1566   PD        0.402547    0.435014    0.428832     0.005394
AU1567   AU        0.434755    0.397381    0.427697     0.007504
AU1568   AU        0.433587    0.431550    0.395208     0.007504
PD1569   PD        0.466935    0.397804    0.394796     0.005394
PD1570   PD        0.467753    0.433000    0.427587     0.005394
AU1571   AU        0.501556    0.395956    0.426729     0.007504
PD1572   PD        0.503019    0.435154    0.395475     0.005394
AU1573   AU        0.534344    0.397874    0.393641     0.007504
AU1574   AU        0.536376    0.433008    0.426787     0.007504
AU1575   AU        0.568617    0.397164    0.424751     0.007504
AU1576   AU        0.568779    0.432261    0.393637     0.007504
PD1577   PD        0.602386    0.395974    0.394610     0.005394
PD1578   PD        0.602194    0.432910    0.427080     0.005394
AU1579   AU        0.634331    0.397465    0.425456     0.007504
AU1580   AU        0.633107    0.433004    0.393852     0.007504
PD1581   PD        0.666176    0.396933    0.393598     0.005394
AU1582   AU        0.666706    0.433452    0.426607     0.007504
AU1583   AU        0.700363    0.397456    0.427793     0.007504
AU1584   AU        0.699111    0.430616    0.395377     0.007504
AU1585   AU        0.732698    0.394966    0.394047     0.007504
AU1586   AU        0.733422    0.430795    0.426244     0.007504
AU1587   AU        0.765586    0.395893    0.424991     0.007504
AU1588   AU        0.767760    0.431574    0.392785     0.007504
PD1589   PD        0.799666    0.396556    0.392723     0.005394
PD1590   PD        0.798720    0.430696    0.426979     0.005394
AU1591   AU        0.832424    0.393216    0.426596     0.007504
PD1592   PD        0.833884    0.428765    0.393761     0.005394
AU1593   AU        0.868673    0.427651    0.425358     0.007504
PD1594   PD        0.069377    0.440518    0.361453     0.005394
PD1595   PD        0.070411    0.500238    0.426318     0.005394
PD1596   PD        0.105055    0.468913    0.427912     0.005394
AU1597   AU        0.102755    0.503991    0.391262     0.007504
AU1598   AU        0.138479    0.467990    0.394199     0.007504
AU1599   AU        0.134653    0.505963    0.425945     0.007504
PD1600   PD        0.168773    0.469195    0.429355     0.005394
AU1601   AU        0.170582    0.504786    0.394584     0.007504
AU1602   AU        0.204433    0.469973    0.392207     0.007504
PD1603   PD        0.202481    0.505022    0.426962     0.005394
PD1604   PD        0.236034    0.468982    0.425485     0.005394
AU1605   AU        0.236218    0.505561    0.392670     0.007504
AU1606   AU        0.269430    0.469334    0.391098     0.007504
AU1607   AU        0.268568    0.505886    0.424973     0.007504
PD1608   PD        0.299631    0.469801    0.428597     0.005394
AU1609   AU        0.302873    0.505172    0.391645     0.007504
PD1610   PD        0.333223    0.470857    0.391562     0.005394
AU1611   AU        0.335359    0.505648    0.427525     0.007504
PD1612   PD        0.368760    0.468769    0.430164     0.005394
PD1613   PD        0.368676    0.503537    0.395326     0.005394
AU1614   AU        0.401241    0.469953    0.395575     0.007504
PD1615   PD        0.403695    0.502391    0.429426     0.005394
PD1616   PD        0.436761    0.468325    0.422749     0.005394
AU1617   AU        0.434896    0.506966    0.393422     0.007504
PD1618   PD        0.466447    0.468198    0.396375     0.005394
PD1619   PD        0.472544    0.505254    0.426261     0.005394
AU1620   AU        0.501682    0.466231    0.428231     0.007504
AU1621   AU        0.502283    0.500923    0.392369     0.007504
PD1622   PD        0.536307    0.468273    0.391459     0.005394
AU1623   AU        0.534793    0.501605    0.426094     0.007504
AU1624   AU        0.570035    0.467329    0.427325     0.007504
AU1625   AU        0.568219    0.503764    0.395436     0.007504
PD1626   PD        0.600983    0.469016    0.392507     0.005394
PD1627   PD        0.599509    0.504767    0.427238     0.005394
AU1628   AU        0.632147    0.470026    0.428278     0.007504
AU1629   AU        0.635630    0.503427    0.393786     0.007504
AU1630   AU        0.667405    0.466237    0.394069     0.007504
AU1631   AU        0.667550    0.501779    0.426957     0.007504
AU1632   AU        0.699902    0.468174    0.426462     0.007504
AU1633   AU        0.700906    0.501339    0.391501     0.007504
AU1634   AU        0.735169    0.465882    0.393705     0.007504
PD1635   PD        0.733687    0.502996    0.425913     0.005394
PD1636   PD        0.769152    0.466729    0.426258     0.005394
AU1637   AU        0.765999    0.502586    0.392154     0.007504
AU1638   AU        0.799128    0.465974    0.391631     0.007504
PD1639   PD        0.800540    0.504312    0.428325     0.005394
PD1640   PD        0.833305    0.465456    0.424980     0.005394
AU1641   AU        0.833220    0.501869    0.392240     0.007504
PD1642   PD        0.866813    0.464919    0.393033     0.005394
PD1643   PD        0.868124    0.499460    0.427997     0.005394
PD1644   PD        0.100573    0.542996    0.425347     0.005394
PD1645   PD        0.102154    0.575781    0.391972     0.005394
PD1646   PD        0.136160    0.542417    0.393106     0.005394
AU1647   AU        0.137475    0.574848    0.425340     0.007504
PD1648   PD        0.168573    0.540654    0.425360     0.005394
AU1649   AU        0.169314    0.574129    0.391604     0.007504
PD1650   PD        0.201750    0.540810    0.392953     0.005394
PD1651   PD        0.204187    0.573495    0.426072     0.005394
PD1652   PD        0.235090    0.541475    0.423106     0.005394
PD1653   PD        0.236697    0.574433    0.391346     0.005394
AU1654   AU        0.268540    0.542691    0.392330     0.007504
AU1655   AU        0.269313    0.573217    0.425555     0.007504
AU1656   AU        0.304122    0.540783    0.424842     0.007504
AU1657   AU        0.302966    0.576239    0.394600     0.007504
PD1658   PD        0.337846    0.539621    0.389907     0.005394
PD1659   PD        0.334373    0.573130    0.425406     0.005394
AU1660   AU        0.370011    0.539359    0.427512     0.007504
AU1661   AU        0.367620    0.575471    0.394134     0.007504
AU1662   AU        0.401399    0.538554    0.392903     0.007504
AU1663   AU        0.402170    0.575214    0.424543     0.007504
AU1664   AU        0.435803    0.538788    0.428654     0.007504
AU1665   AU        0.435342    0.574241    0.393659     0.007504
AU1666   AU        0.467724    0.538341    0.393857     0.007504
PD1667   PD        0.467221    0.573748    0.427065     0.005394
AU1668   AU        0.499974    0.536450    0.427030     0.007504
AU1669   AU        0.500899    0.574212    0.394345     0.007504
PD1670   PD        0.534015    0.539547    0.395492     0.005394
PD1671   PD        0.535470    0.574139    0.427003     0.005394
AU1672   AU        0.569023    0.538275    0.426653     0.007504
AU1673   AU        0.567224    0.574426    0.392987     0.007504
PD1674   PD        0.603121    0.538221    0.394280     0.005394
AU1675   AU        0.600698    0.575062    0.424768     0.007504
PD1676   PD        0.637596    0.539705    0.425650     0.005394
AU1677   AU        0.634653    0.575143    0.394342     0.007504
AU1678   AU        0.667531    0.537907    0.394127     0.007504
AU1679   AU        0.667664    0.575429    0.429446     0.007504
AU1680   AU        0.699197    0.540359    0.427266     0.007504
PD1681   PD        0.703249    0.574008    0.395640     0.005394
AU1682   AU        0.733177    0.535110    0.394060     0.007504
AU1683   AU        0.732512    0.574962    0.423224     0.007504
AU1684   AU        0.765693    0.539358    0.426315     0.007504
AU1685   AU        0.765649    0.575125    0.392672     0.007504
AU1686   AU        0.797663    0.539147    0.392605     0.007504
PD1687   PD        0.800769    0.573585    0.424726     0.005394
PD1688   PD        0.834356    0.537359    0.426596     0.005394
PD1689   PD        0.834555    0.576717    0.394495     0.005394
AU1690   AU        0.102803    0.611671    0.428691     0.007504
PD1691   PD        0.102176    0.648814    0.394953     0.005394
AU1692   AU        0.135077    0.610202    0.393425     0.007504
AU1693   AU        0.139324    0.643958    0.426331     0.007504
PD1694   PD        0.170956    0.610398    0.427122     0.005394
AU1695   AU        0.168867    0.647096    0.393477     0.007504
PD1696   PD        0.204045    0.609989    0.390333     0.005394
PD1697   PD        0.203672    0.645627    0.425549     0.005394
PD1698   PD        0.234898    0.610670    0.423415     0.005394
PD1699   PD        0.237869    0.647971    0.394708     0.005394
AU1700   AU        0.272406    0.609333    0.393469     0.007504
AU1701   AU        0.268594    0.645871    0.426214     0.007504
PD1702   PD        0.303169    0.612779    0.427374     0.005394
PD1703   PD        0.301779    0.648488    0.393530     0.005394
PD1704   PD        0.334433    0.612565    0.394911     0.005394
PD1705   PD        0.335949    0.646028    0.428966     0.005394
PD1706   PD        0.368152    0.610262    0.428961     0.005394
AU1707   AU        0.368406    0.644151    0.393850     0.007504
PD1708   PD        0.399983    0.610285    0.392138     0.005394
AU1709   AU        0.402576    0.646201    0.426554     0.007504
AU1710   AU        0.435349    0.609341    0.426710     0.007504
AU1711   AU        0.434010    0.644217    0.395335     0.007504
AU1712   AU        0.467024    0.610264    0.393141     0.007504
PD1713   PD        0.467726    0.646548    0.425012     0.005394
AU1714   AU        0.498788    0.611441    0.425485     0.007504
PD1715   PD        0.501822    0.645527    0.393243     0.005394
AU1716   AU        0.534612    0.608370    0.392207     0.007504
PD1717   PD        0.533376    0.642589    0.429188     0.005394
AU1718   AU        0.566799    0.610532    0.427395     0.007504
PD1719   PD        0.569400    0.644801    0.392850     0.005394
AU1720   AU        0.600738    0.609783    0.393735     0.007504
PD1721   PD        0.600905    0.643966    0.426769     0.005394
PD1722   PD        0.634773    0.608648    0.426918     0.005394
AU1723   AU        0.635255    0.644201    0.396044     0.007504
AU1724   AU        0.667500    0.608994    0.394982     0.007504
PD1725   PD        0.666086    0.646606    0.428805     0.005394
AU1726   AU        0.702993    0.610898    0.425954     0.007504
AU1727   AU        0.699835    0.645795    0.392726     0.007504
AU1728   AU        0.734870    0.612532    0.392231     0.007504
AU1729   AU        0.736237    0.648174    0.424781     0.007504
AU1730   AU        0.767411    0.611348    0.426308     0.007504
AU1731   AU        0.766614    0.647724    0.391263     0.007504
AU1732   AU        0.797639    0.609914    0.391112     0.007504
PD1733   PD        0.801892    0.644943    0.423860     0.005394
PD1734   PD        0.828754    0.609920    0.425151     0.005394
PD1735   PD        0.860093    0.637653    0.384075     0.005394
PD1736   PD        0.139179    0.683529    0.395933     0.005394
PD1737   PD        0.137304    0.716334    0.426161     0.005394
AU1738   AU        0.170087    0.682666    0.428127     0.007504
AU1739   AU        0.169702    0.719070    0.391769     0.007504
AU1740   AU        0.203286    0.682750    0.393051     0.007504
AU1741   AU        0.202670    0.718415    0.427349     0.007504
AU1742   AU        0.235776    0.681971    0.425945     0.007504
AU1743   AU        0.234605    0.718519    0.393515     0.007504
PD1744   PD        0.269169    0.682221    0.391640     0.005394
AU1745   AU        0.269043    0.715705    0.424630     0.007504
AU1746   AU        0.300517    0.682222    0.425604     0.007504
AU1747   AU        0.303687    0.718056    0.396388     0.007504
PD1748   PD        0.335511    0.681068    0.393255     0.005394
AU1749   AU        0.334212    0.717646    0.427278     0.007504
PD1750   PD        0.369280    0.681620    0.425723     0.005394
PD1751   PD        0.368601    0.718403    0.391923     0.005394
AU1752   AU        0.400498    0.679628    0.393814     0.007504
PD1753   PD        0.400262    0.719887    0.424873     0.005394
AU1754   AU        0.435259    0.681339    0.428041     0.007504
PD1755   PD        0.433239    0.717718    0.393729     0.005394
PD1756   PD        0.467947    0.682981    0.392014     0.005394
PD1757   PD        0.468242    0.715515    0.424361     0.005394
PD1758   PD        0.500909    0.679104    0.426137     0.005394
AU1759   AU        0.501219    0.715427    0.393835     0.007504
PD1760   PD        0.532849    0.678643    0.392067     0.005394
PD1761   PD        0.534010    0.717800    0.426666     0.005394
AU1762   AU        0.567238    0.679771    0.427070     0.007504
PD1763   PD        0.567491    0.717242    0.393833     0.005394
PD1764   PD        0.601704    0.683998    0.394705     0.005394
AU1765   AU        0.600727    0.716297    0.428863     0.007504
AU1766   AU        0.632493    0.681209    0.427676     0.007504
PD1767   PD        0.634327    0.716776    0.395686     0.005394
AU1768   AU        0.666776    0.681198    0.394351     0.007504
AU1769   AU        0.667300    0.716368    0.427704     0.007504
AU1770   AU        0.700884    0.681805    0.426517     0.007504
PD1771   PD        0.700985    0.718145    0.396175     0.005394
AU1772   AU        0.732858    0.681741    0.391332     0.007504
PD1773   PD        0.735601    0.717320    0.428382     0.005394
PD1774   PD        0.766534    0.680490    0.427577     0.005394
PD1775   PD        0.766495    0.719826    0.393515     0.005394
PD1776   PD        0.796610    0.682262    0.389957     0.005394
PD1777   PD        0.799278    0.716555    0.429459     0.005394
AU1778   AU        0.170055    0.750748    0.427615     0.007504
AU1779   AU        0.199930    0.754423    0.392032     0.007504
PD1780   PD        0.199548    0.787884    0.429664     0.005394
AU1781   AU        0.234359    0.752229    0.425307     0.007504
PD1782   PD        0.202692    0.790166    0.362607     0.005394
AU1783   AU        0.269804    0.753705    0.396853     0.007504
PD1784   PD        0.269040    0.791802    0.427924     0.005394
PD1785   PD        0.303683    0.754329    0.426302     0.005394
AU1786   AU        0.301879    0.787865    0.394445     0.007504
PD1787   PD        0.333661    0.753009    0.393088     0.005394
PD1788   PD        0.336281    0.789131    0.427150     0.005394
PD1789   PD        0.365748    0.752404    0.427891     0.005394
AU1790   AU        0.369810    0.787885    0.392422     0.007504
PD1791   PD        0.402108    0.752971    0.392559     0.005394
AU1792   AU        0.401411    0.788286    0.426983     0.007504
PD1793   PD        0.434750    0.753585    0.423681     0.005394
PD1794   PD        0.434160    0.789077    0.393012     0.005394
PD1795   PD        0.465549    0.754519    0.392898     0.005394
AU1796   AU        0.468993    0.787132    0.426977     0.007504
PD1797   PD        0.501409    0.752551    0.425411     0.005394
PD1798   PD        0.500670    0.790524    0.393715     0.005394
PD1799   PD        0.533411    0.751695    0.391207     0.005394
PD1800   PD        0.535155    0.787104    0.424531     0.005394
PD1801   PD        0.567404    0.752582    0.426181     0.005394
AU1802   AU        0.566001    0.788602    0.390403     0.007504
AU1803   AU        0.600686    0.753041    0.393934     0.007504
AU1804   AU        0.601014    0.787448    0.428867     0.007504
AU1805   AU        0.633811    0.751749    0.428782     0.007504
PD1806   PD        0.631160    0.788284    0.395702     0.005394
AU1807   AU        0.666078    0.749546    0.394729     0.007504
AU1808   AU        0.665557    0.785048    0.426614     0.007504
AU1809   AU        0.700781    0.751361    0.429681     0.007504
AU1810   AU        0.698776    0.785004    0.394482     0.007504
PD1811   PD        0.734068    0.753783    0.394999     0.005394
AU1812   AU        0.733432    0.787809    0.430918     0.007504
AU1813   AU        0.766559    0.754377    0.425630     0.007504
AU1814   AU        0.233827    0.820244    0.426345     0.007504
AU1815   AU        0.270248    0.822196    0.392131     0.007504
AU1816   AU        0.301532    0.824879    0.428129     0.007504
PD1817   PD        0.266501    0.895976    0.393681     0.005394
AU1818   AU        0.336160    0.824403    0.395938     0.007504
AU1819   AU        0.335038    0.858899    0.428441     0.007504
AU1820   AU        0.370139    0.823358    0.426855     0.007504
PD1821   PD        0.368132    0.862077    0.396445     0.005394
AU1822   AU        0.402478    0.825702    0.393029     0.007504
AU1823   AU        0.402437    0.857842    0.425847     0.007504
PD1824   PD        0.436104    0.823904    0.427190     0.005394
PD1825   PD        0.434158    0.858721    0.390570     0.005394
PD1826   PD        0.464678    0.822217    0.393955     0.005394
PD1827   PD        0.465810    0.855653    0.426981     0.005394
PD1828   PD        0.503874    0.823569    0.426471     0.005394
PD1829   PD        0.499818    0.857373    0.395872     0.005394
PD1830   PD        0.534721    0.822866    0.393025     0.005394
PD1831   PD        0.571572    0.897128    0.430873     0.005394
PD1832   PD        0.568809    0.824521    0.426610     0.005394
PD1833   PD        0.569408    0.858263    0.391764     0.005394
PD1834   PD        0.600245    0.820009    0.391711     0.005394
AU1835   AU        0.601724    0.860891    0.424435     0.007504
PD1836   PD        0.633313    0.818422    0.427827     0.005394
PD1837   PD        0.632885    0.856279    0.391473     0.005394
PD1838   PD        0.663359    0.819405    0.394351     0.005394
PD1839   PD        0.734585    0.818804    0.395906     0.005394
PD1840   PD        0.433868    0.895508    0.428300     0.005394
PD1841   PD        0.469435    0.892992    0.396990     0.005394
PD1842   PD        0.496423    0.897700    0.423422     0.005394
PD1843   PD        0.297910    0.074528    0.460665     0.005394
PD1844   PD        0.337161    0.075677    0.491781     0.005394
PD1845   PD        0.369309    0.076947    0.459896     0.005394
PD1846   PD        0.404325    0.041846    0.459758     0.005394
PD1847   PD        0.403047    0.078706    0.493699     0.005394
PD1848   PD        0.437615    0.040756    0.494758     0.005394
AU1849   AU        0.437198    0.078437    0.460281     0.007504
AU1850   AU        0.469331    0.040558    0.461135     0.007504
AU1851   AU        0.469922    0.076470    0.492915     0.007504
PD1852   PD        0.502052    0.038713    0.496741     0.005394
AU1853   AU        0.504324    0.075928    0.459597     0.007504
PD1854   PD        0.534263    0.039084    0.460505     0.005394
PD1855   PD        0.533921    0.075907    0.493661     0.005394
PD1856   PD        0.568444    0.077089    0.460069     0.005394
PD1857   PD        0.600024    0.074424    0.493278     0.005394
PD1858   PD        0.632360    0.073861    0.459314     0.005394
PD1859   PD        0.171057    0.153403    0.530163     0.005394
AU1860   AU        0.236646    0.113481    0.494746     0.007504
PD1861   PD        0.202782    0.110582    0.460696     0.005394
AU1862   AU        0.265165    0.112781    0.459798     0.007504
PD1863   PD        0.270549    0.145445    0.496062     0.005394
PD1864   PD        0.303277    0.111264    0.493993     0.005394
AU1865   AU        0.300481    0.145973    0.460037     0.007504
PD1866   PD        0.334813    0.109326    0.459759     0.005394
PD1867   PD        0.336098    0.146327    0.491616     0.005394
PD1868   PD        0.369960    0.111009    0.494125     0.005394
PD1869   PD        0.367403    0.147757    0.460563     0.005394
PD1870   PD        0.401904    0.110413    0.458874     0.005394
PD1871   PD        0.401151    0.147868    0.492328     0.005394
AU1872   AU        0.435476    0.113904    0.493880     0.007504
PD1873   PD        0.436741    0.145396    0.457464     0.005394
PD1874   PD        0.471153    0.110164    0.460188     0.005394
PD1875   PD        0.469284    0.147020    0.489757     0.005394
AU1876   AU        0.500687    0.111214    0.493406     0.007504
AU1877   AU        0.503087    0.145815    0.458360     0.007504
PD1878   PD        0.536196    0.110879    0.460810     0.005394
PD1879   PD        0.532014    0.147487    0.492310     0.005394
PD1880   PD        0.568237    0.110815    0.492003     0.005394
PD1881   PD        0.565648    0.145770    0.460844     0.005394
AU1882   AU        0.600386    0.110257    0.460597     0.007504
AU1883   AU        0.598604    0.150370    0.494214     0.007504
AU1884   AU        0.633508    0.110333    0.492779     0.007504
AU1885   AU        0.633400    0.147045    0.459077     0.007504
PD1886   PD        0.663871    0.110554    0.458406     0.005394
AU1887   AU        0.665486    0.144230    0.489859     0.007504
AU1888   AU        0.698947    0.112588    0.489123     0.007504
AU1889   AU        0.698957    0.148674    0.458489     0.007504
PD1890   PD        0.732907    0.148244    0.491402     0.005394
PD1891   PD        0.133543    0.217745    0.494497     0.005394
PD1892   PD        0.170343    0.183404    0.489679     0.005394
PD1893   PD        0.169221    0.216096    0.460247     0.005394
PD1894   PD        0.203947    0.182682    0.460538     0.005394
PD1895   PD        0.201097    0.215954    0.501919     0.005394
PD1896   PD        0.235514    0.180585    0.494199     0.005394
AU1897   AU        0.236184    0.220305    0.458404     0.007504
AU1898   AU        0.268432    0.182354    0.461054     0.007504
AU1899   AU        0.269276    0.217741    0.494157     0.007504
PD1900   PD        0.302856    0.180611    0.490102     0.005394
PD1901   PD        0.303282    0.217318    0.458688     0.005394
AU1902   AU        0.335004    0.182101    0.457627     0.007504
AU1903   AU        0.335946    0.218845    0.491677     0.007504
AU1904   AU        0.367767    0.182904    0.494084     0.007504
PD1905   PD        0.368641    0.217633    0.460795     0.005394
AU1906   AU        0.401738    0.181542    0.458286     0.007504
PD1907   PD        0.404181    0.215656    0.492519     0.005394
AU1908   AU        0.436987    0.181309    0.491426     0.007504
AU1909   AU        0.434299    0.220793    0.458753     0.007504
AU1910   AU        0.467897    0.181520    0.457452     0.007504
PD1911   PD        0.467037    0.217789    0.491406     0.005394
PD1912   PD        0.499458    0.183039    0.492070     0.005394
AU1913   AU        0.501543    0.219574    0.459611     0.007504
PD1914   PD        0.532691    0.183496    0.457529     0.005394
PD1915   PD        0.533547    0.217928    0.490701     0.005394
PD1916   PD        0.565448    0.183971    0.493783     0.005394
AU1917   AU        0.567510    0.220438    0.459587     0.007504
AU1918   AU        0.598757    0.180987    0.458100     0.007504
PD1919   PD        0.599219    0.216905    0.493753     0.005394
AU1920   AU        0.632484    0.182681    0.490758     0.007504
AU1921   AU        0.630861    0.220654    0.458818     0.007504
PD1922   PD        0.667410    0.181914    0.459957     0.005394
PD1923   PD        0.666843    0.216423    0.489348     0.005394
AU1924   AU        0.699986    0.182416    0.491138     0.007504
PD1925   PD        0.701642    0.219720    0.461455     0.005394
AU1926   AU        0.733679    0.182591    0.456503     0.007504
AU1927   AU        0.734039    0.219922    0.490458     0.007504
PD1928   PD        0.765106    0.184420    0.490961     0.005394
AU1929   AU        0.766187    0.217720    0.458857     0.007504
PD1930   PD        0.798701    0.216219    0.489688     0.005394
PD1931   PD        0.100478    0.285970    0.465771     0.005394
PD1932   PD        0.077333    0.204280    0.431272     0.005394
AU1933   AU        0.135595    0.289664    0.494781     0.007504
AU1934   AU        0.169118    0.254090    0.493675     0.007504
AU1935   AU        0.169085    0.289443    0.462948     0.007504
PD1936   PD        0.201834    0.256070    0.455771     0.005394
PD1937   PD        0.202758    0.287630    0.492353     0.005394
PD1938   PD        0.236261    0.249120    0.492917     0.005394
PD1939   PD        0.236071    0.286746    0.462014     0.005394
PD1940   PD        0.269091    0.255066    0.463140     0.005394
PD1941   PD        0.270972    0.289637    0.494869     0.005394
AU1942   AU        0.300932    0.250814    0.494611     0.007504
PD1943   PD        0.302101    0.287827    0.459810     0.005394
PD1944   PD        0.333783    0.253871    0.462639     0.005394
PD1945   PD        0.336989    0.288066    0.494779     0.005394
AU1946   AU        0.368444    0.251080    0.494458     0.007504
AU1947   AU        0.368986    0.287142    0.460722     0.007504
AU1948   AU        0.400093    0.252118    0.460248     0.007504
PD1949   PD        0.399642    0.290198    0.492586     0.005394
AU1950   AU        0.436474    0.254120    0.493643     0.007504
PD1951   PD        0.435679    0.290525    0.460767     0.005394
AU1952   AU        0.467731    0.255375    0.458815     0.007504
PD1953   PD        0.469331    0.287876    0.492803     0.005394
PD1954   PD        0.500248    0.255059    0.492483     0.005394
PD1955   PD        0.500599    0.291054    0.459833     0.005394
AU1956   AU        0.535218    0.255950    0.458845     0.007504
AU1957   AU        0.534836    0.289201    0.494019     0.007504
AU1958   AU        0.567766    0.254685    0.493441     0.007504
AU1959   AU        0.567439    0.290836    0.460419     0.007504
PD1960   PD        0.598182    0.254939    0.460230     0.005394
PD1961   PD        0.601010    0.290351    0.494304     0.005394
PD1962   PD        0.635183    0.251712    0.495189     0.005394
AU1963   AU        0.634723    0.290424    0.460020     0.007504
PD1964   PD        0.666636    0.251981    0.460231     0.005394
PD1965   PD        0.669411    0.289851    0.492905     0.005394
PD1966   PD        0.698578    0.252922    0.494110     0.005394
AU1967   AU        0.701649    0.288090    0.458837     0.007504
PD1968   PD        0.735431    0.253851    0.458341     0.005394
PD1969   PD        0.731989    0.289020    0.494361     0.005394
AU1970   AU        0.767670    0.255126    0.494659     0.007504
AU1971   AU        0.765109    0.290061    0.460788     0.007504
AU1972   AU        0.797106    0.256552    0.459579     0.007504
PD1973   PD        0.797860    0.291086    0.492661     0.005394
PD1974   PD        0.832897    0.289962    0.456060     0.005394
PD1975   PD        0.099888    0.327739    0.497639     0.005394
PD1976   PD        0.069754    0.368351    0.496402     0.005394
PD1977   PD        0.131749    0.325684    0.461874     0.005394
PD1978   PD        0.134503    0.361200    0.495559     0.005394
PD1979   PD        0.167511    0.326171    0.493383     0.005394
PD1980   PD        0.170479    0.365486    0.459703     0.005394
PD1981   PD        0.200473    0.328291    0.460580     0.005394
PD1982   PD        0.205118    0.360199    0.496400     0.005394
AU1983   AU        0.235641    0.323635    0.492795     0.007504
AU1984   AU        0.235808    0.360163    0.459267     0.007504
PD1985   PD        0.269771    0.319477    0.461549     0.005394
PD1986   PD        0.268936    0.358419    0.489975     0.005394
PD1987   PD        0.302938    0.323097    0.492538     0.005394
PD1988   PD        0.303677    0.360672    0.461821     0.005394
PD1989   PD        0.336378    0.321794    0.462827     0.005394
PD1990   PD        0.335024    0.358624    0.493639     0.005394
PD1991   PD        0.367641    0.321375    0.495358     0.005394
PD1992   PD        0.370568    0.358748    0.458809     0.005394
PD1993   PD        0.403277    0.326882    0.461825     0.005394
AU1994   AU        0.403359    0.359947    0.495729     0.007504
PD1995   PD        0.433691    0.323722    0.494743     0.005394
AU1996   AU        0.435722    0.361579    0.459804     0.007504
AU1997   AU        0.468537    0.327614    0.460264     0.007504
AU1998   AU        0.467362    0.361361    0.493980     0.007504
AU1999   AU        0.501819    0.326389    0.492639     0.007504
AU2000   AU        0.503146    0.361988    0.460207     0.007504
PD2001   PD        0.534438    0.324171    0.459518     0.005394
AU2002   AU        0.535553    0.361171    0.494921     0.007504
PD2003   PD        0.567631    0.326582    0.492352     0.005394
AU2004   AU        0.568251    0.361079    0.460781     0.007504
AU2005   AU        0.599269    0.323522    0.458310     0.007504
AU2006   AU        0.601588    0.358297    0.491579     0.007504
AU2007   AU        0.634958    0.326096    0.492193     0.007504
PD2008   PD        0.635645    0.361560    0.458274     0.005394
AU2009   AU        0.667977    0.324344    0.458419     0.007504
AU2010   AU        0.666524    0.362741    0.493957     0.007504
AU2011   AU        0.699904    0.324513    0.490995     0.007504
AU2012   AU        0.701078    0.359981    0.459844     0.007504
AU2013   AU        0.733965    0.325907    0.458620     0.007504
PD2014   PD        0.734104    0.362267    0.491755     0.005394
AU2015   AU        0.763495    0.326484    0.493318     0.007504
PD2016   PD        0.765549    0.362004    0.459530     0.005394
AU2017   AU        0.800072    0.324254    0.460216     0.007504
AU2018   AU        0.797969    0.362336    0.491179     0.007504
AU2019   AU        0.834657    0.322693    0.493289     0.007504
AU2020   AU        0.831507    0.358489    0.460232     0.007504
PD2021   PD        0.034748    0.435807    0.456756     0.005394
PD2022   PD        0.001395    0.357371    0.559427     0.005394
PD2023   PD        0.102734    0.400911    0.491687     0.005394
AU2024   AU        0.102498    0.434639    0.460169     0.007504
PD2025   PD        0.136551    0.396401    0.460746     0.005394
PD2026   PD        0.139573    0.433342    0.493201     0.005394
PD2027   PD        0.168710    0.396928    0.496621     0.005394
PD2028   PD        0.169028    0.431067    0.460785     0.005394
PD2029   PD        0.202621    0.396341    0.457520     0.005394
PD2030   PD        0.200467    0.432340    0.492768     0.005394
AU2031   AU        0.235882    0.398866    0.493045     0.007504
AU2032   AU        0.238395    0.433184    0.460090     0.007504
PD2033   PD        0.268815    0.394251    0.459810     0.005394
PD2034   PD        0.270806    0.432688    0.495528     0.005394
PD2035   PD        0.303885    0.394670    0.494176     0.005394
PD2036   PD        0.302767    0.433597    0.461940     0.005394
PD2037   PD        0.336979    0.396861    0.458148     0.005394
PD2038   PD        0.334071    0.430661    0.493885     0.005394
AU2039   AU        0.368131    0.395204    0.496760     0.007504
AU2040   AU        0.367957    0.432766    0.461174     0.007504
PD2041   PD        0.399615    0.397368    0.461176     0.005394
PD2042   PD        0.399735    0.432231    0.495842     0.005394
AU2043   AU        0.434405    0.395934    0.491527     0.007504
PD2044   PD        0.434665    0.431688    0.461154     0.005394
AU2045   AU        0.467250    0.398741    0.460524     0.007504
PD2046   PD        0.466727    0.430895    0.492781     0.005394
AU2047   AU        0.501146    0.397197    0.491984     0.007504
PD2048   PD        0.502571    0.431196    0.458836     0.005394
AU2049   AU        0.535591    0.395941    0.458465     0.007504
AU2050   AU        0.534419    0.430009    0.492486     0.007504
AU2051   AU        0.568796    0.395037    0.493026     0.007504
PD2052   PD        0.568294    0.430689    0.460687     0.005394
AU2053   AU        0.602829    0.397510    0.460422     0.007504
AU2054   AU        0.601586    0.432850    0.493865     0.007504
AU2055   AU        0.635043    0.396825    0.492445     0.007504
AU2056   AU        0.635219    0.432579    0.458894     0.007504
AU2057   AU        0.668152    0.398017    0.460803     0.007504
AU2058   AU        0.668715    0.431381    0.492319     0.007504
AU2059   AU        0.700440    0.395327    0.493137     0.007504
AU2060   AU        0.700096    0.433463    0.458950     0.007504
PD2061   PD        0.733099    0.397308    0.459660     0.005394
PD2062   PD        0.732997    0.432974    0.492546     0.005394
AU2063   AU        0.765891    0.396471    0.491711     0.007504
PD2064   PD        0.769193    0.433552    0.460114     0.005394
PD2065   PD        0.798396    0.396455    0.460846     0.005394
PD2066   PD        0.799908    0.432251    0.493004     0.005394
PD2067   PD        0.832441    0.396388    0.492720     0.005394
PD2068   PD        0.834034    0.430628    0.458887     0.005394
PD2069   PD        0.864535    0.394527    0.459216     0.005394
PD2070   PD        0.866189    0.435358    0.489863     0.005394
AU2071   AU        0.068572    0.469447    0.461525     0.007504
PD2072   PD        0.068721    0.504114    0.492891     0.005394
PD2073   PD        0.101477    0.468765    0.494991     0.005394
AU2074   AU        0.102716    0.504153    0.460926     0.007504
PD2075   PD        0.136449    0.466122    0.459417     0.005394
PD2076   PD        0.138148    0.502605    0.492288     0.005394
PD2077   PD        0.172038    0.468022    0.492726     0.005394
AU2078   AU        0.168988    0.507316    0.458703     0.007504
PD2079   PD        0.202838    0.470546    0.460809     0.005394
PD2080   PD        0.201954    0.504308    0.494161     0.005394
AU2081   AU        0.236327    0.466103    0.492315     0.007504
PD2082   PD        0.235282    0.503595    0.458360     0.005394
AU2083   AU        0.269524    0.468303    0.459307     0.007504
AU2084   AU        0.268736    0.505100    0.492223     0.007504
AU2085   AU        0.302368    0.466983    0.494981     0.007504
AU2086   AU        0.301903    0.504435    0.461419     0.007504
AU2087   AU        0.333631    0.468578    0.461071     0.007504
PD2088   PD        0.333292    0.502031    0.493384     0.005394
AU2089   AU        0.366653    0.467030    0.493909     0.007504
AU2090   AU        0.368865    0.504801    0.459286     0.007504
PD2091   PD        0.400013    0.464188    0.462760     0.005394
PD2092   PD        0.401299    0.503568    0.492111     0.005394
AU2093   AU        0.433288    0.468169    0.494057     0.007504
PD2094   PD        0.437748    0.504591    0.461524     0.005394
AU2095   AU        0.469186    0.466898    0.461207     0.007504
AU2096   AU        0.468395    0.501330    0.492516     0.007504
AU2097   AU        0.500092    0.464354    0.493145     0.007504
AU2098   AU        0.502149    0.501708    0.461630     0.007504
AU2099   AU        0.537123    0.466905    0.460526     0.007504
PD2100   PD        0.534040    0.505129    0.492585     0.005394
AU2101   AU        0.566675    0.467633    0.493746     0.007504
AU2102   AU        0.567433    0.503128    0.460427     0.007504
AU2103   AU        0.601177    0.468309    0.463624     0.007504
AU2104   AU        0.600464    0.503968    0.493832     0.007504
AU2105   AU        0.634275    0.466283    0.494276     0.007504
AU2106   AU        0.633941    0.503674    0.461844     0.007504
PD2107   PD        0.665179    0.469468    0.461342     0.005394
AU2108   AU        0.667240    0.502375    0.495681     0.007504
AU2109   AU        0.700301    0.467603    0.491787     0.007504
AU2110   AU        0.700573    0.502797    0.457910     0.007504
AU2111   AU        0.734230    0.467938    0.458603     0.007504
AU2112   AU        0.733264    0.503626    0.494028     0.007504
AU2113   AU        0.767048    0.466857    0.492926     0.007504
AU2114   AU        0.765627    0.503793    0.459767     0.007504
AU2115   AU        0.801789    0.466628    0.460645     0.007504
PD2116   PD        0.799702    0.503702    0.495186     0.005394
AU2117   AU        0.831875    0.467074    0.495906     0.007504
PD2118   PD        0.832003    0.506258    0.461247     0.005394
PD2119   PD        0.900074    0.466658    0.497965     0.005394
AU2120   AU        0.863934    0.502965    0.494375     0.007504
PD2121   PD        0.065706    0.537717    0.453455     0.005394
PD2122   PD        0.106741    0.536230    0.489710     0.005394
PD2123   PD        0.097601    0.570127    0.457182     0.005394
PD2124   PD        0.135015    0.541856    0.460832     0.005394
AU2125   AU        0.135134    0.576353    0.494071     0.007504
PD2126   PD        0.169150    0.541431    0.494164     0.005394
PD2127   PD        0.170750    0.575671    0.460167     0.005394
PD2128   PD        0.204103    0.539232    0.458949     0.005394
PD2129   PD        0.202945    0.575709    0.490650     0.005394
AU2130   AU        0.235293    0.539478    0.491948     0.007504
AU2131   AU        0.237875    0.573856    0.459225     0.007504
AU2132   AU        0.270693    0.539838    0.459516     0.007504
AU2133   AU        0.268843    0.575233    0.494310     0.007504
AU2134   AU        0.302856    0.540165    0.493046     0.007504
AU2135   AU        0.303467    0.576062    0.458451     0.007504
AU2136   AU        0.335852    0.539794    0.460594     0.007504
PD2137   PD        0.336167    0.575012    0.493691     0.005394
PD2138   PD        0.368523    0.540796    0.492909     0.005394
PD2139   PD        0.369199    0.574943    0.460351     0.005394
AU2140   AU        0.403099    0.541448    0.459843     0.007504
AU2141   AU        0.402956    0.574873    0.492136     0.007504
AU2142   AU        0.435804    0.541026    0.493252     0.007504
AU2143   AU        0.435515    0.576107    0.459802     0.007504
PD2144   PD        0.467572    0.539098    0.459968     0.005394
AU2145   AU        0.468206    0.574279    0.492399     0.007504
PD2146   PD        0.502764    0.538176    0.492157     0.005394
PD2147   PD        0.501871    0.573760    0.458930     0.005394
AU2148   AU        0.535065    0.540505    0.461409     0.007504
AU2149   AU        0.532552    0.573345    0.495436     0.007504
PD2150   PD        0.565782    0.538061    0.494136     0.005394
AU2151   AU        0.568123    0.575607    0.459305     0.007504
AU2152   AU        0.602849    0.540386    0.460770     0.007504
AU2153   AU        0.600255    0.576413    0.493779     0.007504
PD2154   PD        0.634362    0.538159    0.494475     0.005394
AU2155   AU        0.634616    0.574423    0.461868     0.007504
PD2156   PD        0.667482    0.538688    0.461920     0.005394
PD2157   PD        0.666368    0.575165    0.494506     0.005394
PD2158   PD        0.698556    0.539605    0.492637     0.005394
PD2159   PD        0.699213    0.576403    0.460942     0.005394
AU2160   AU        0.732367    0.539256    0.462142     0.007504
PD2161   PD        0.729038    0.576055    0.494958     0.005394
PD2162   PD        0.764793    0.538031    0.493779     0.005394
PD2163   PD        0.766824    0.574270    0.460876     0.005394
PD2164   PD        0.797738    0.535001    0.456902     0.005394
AU2165   AU        0.799596    0.573495    0.494554     0.007504
AU2166   AU        0.831430    0.539506    0.492261     0.007504
PD2167   PD        0.834136    0.571605    0.457967     0.005394
PD2168   PD        0.865955    0.537871    0.461282     0.005394
PD2169   PD        0.099583    0.610267    0.497885     0.005394
PD2170   PD        0.097809    0.672077    0.493494     0.005394
PD2171   PD        0.136300    0.610122    0.458342     0.005394
AU2172   AU        0.138992    0.644162    0.493198     0.007504
PD2173   PD        0.171494    0.610947    0.492464     0.005394
AU2174   AU        0.172471    0.643527    0.460158     0.007504
PD2175   PD        0.205061    0.611073    0.458093     0.005394
AU2176   AU        0.204824    0.647412    0.491285     0.007504
PD2177   PD        0.236457    0.609361    0.492978     0.005394
PD2178   PD        0.234737    0.646105    0.456954     0.005394
AU2179   AU        0.267019    0.609935    0.457694     0.007504
AU2180   AU        0.267341    0.645905    0.492017     0.007504
AU2181   AU        0.302779    0.610981    0.493240     0.007504
PD2182   PD        0.302411    0.646121    0.462393     0.005394
PD2183   PD        0.336035    0.609000    0.459768     0.005394
AU2184   AU        0.337201    0.645864    0.494692     0.007504
AU2185   AU        0.368839    0.609940    0.493490     0.007504
PD2186   PD        0.370370    0.643912    0.461165     0.005394
AU2187   AU        0.403730    0.611898    0.459873     0.007504
AU2188   AU        0.402558    0.645260    0.494338     0.007504
PD2189   PD        0.435707    0.612305    0.492903     0.005394
AU2190   AU        0.437489    0.645607    0.459329     0.007504
AU2191   AU        0.467614    0.609154    0.458942     0.007504
PD2192   PD        0.470341    0.645882    0.494362     0.005394
PD2193   PD        0.500584    0.609483    0.494154     0.005394
AU2194   AU        0.502334    0.644862    0.460706     0.007504
AU2195   AU        0.533554    0.607675    0.459770     0.007504
PD2196   PD        0.533522    0.643404    0.492803     0.005394
PD2197   PD        0.566662    0.609442    0.493035     0.005394
AU2198   AU        0.567676    0.647290    0.459840     0.007504
AU2199   AU        0.600129    0.608480    0.460181     0.007504
PD2200   PD        0.600111    0.647835    0.494389     0.005394
AU2201   AU        0.635388    0.612694    0.494882     0.007504
PD2202   PD        0.634429    0.646481    0.459917     0.005394
AU2203   AU        0.665592    0.610667    0.461960     0.007504
AU2204   AU        0.665649    0.646586    0.494053     0.007504
AU2205   AU        0.698889    0.611737    0.493300     0.007504
PD2206   PD        0.701107    0.645121    0.460296     0.005394
PD2207   PD        0.733248    0.612556    0.457784     0.005394
AU2208   AU        0.732744    0.644692    0.493491     0.007504
PD2209   PD        0.764540    0.608906    0.491256     0.005394
PD2210   PD        0.770671    0.643492    0.459183     0.005394
PD2211   PD        0.800108    0.608370    0.457012     0.005394
PD2212   PD        0.800691    0.642904    0.494119     0.005394
PD2213   PD        0.833883    0.607495    0.493133     0.005394
PD2214   PD        0.833949    0.644325    0.460050     0.005394
PD2215   PD        0.134578    0.679238    0.460429     0.005394
PD2216   PD        0.138714    0.715258    0.492972     0.005394
AU2217   AU        0.170248    0.680775    0.491988     0.007504
PD2218   PD        0.168796    0.717331    0.459686     0.005394
AU2219   AU        0.204869    0.683217    0.459258     0.007504
AU2220   AU        0.204594    0.718783    0.491411     0.007504
AU2221   AU        0.236991    0.681110    0.493176     0.007504
AU2222   AU        0.236302    0.718195    0.460016     0.007504
AU2223   AU        0.267927    0.680968    0.458979     0.007504
PD2224   PD        0.269314    0.716611    0.492562     0.005394
PD2225   PD        0.300423    0.680398    0.494178     0.005394
AU2226   AU        0.299914    0.716780    0.459024     0.007504
PD2227   PD        0.333757    0.681388    0.461658     0.005394
AU2228   AU        0.332139    0.716518    0.495131     0.007504
AU2229   AU        0.369865    0.679638    0.492077     0.007504
AU2230   AU        0.367755    0.714896    0.461613     0.007504
PD2231   PD        0.403021    0.681539    0.459782     0.005394
AU2232   AU        0.402048    0.716071    0.494255     0.007504
AU2233   AU        0.433796    0.679211    0.493854     0.007504
AU2234   AU        0.434641    0.716980    0.461858     0.007504
PD2235   PD        0.470244    0.681081    0.459152     0.005394
PD2236   PD        0.467789    0.715125    0.493554     0.005394
AU2237   AU        0.501162    0.680703    0.494217     0.007504
PD2238   PD        0.503671    0.718645    0.463645     0.005394
AU2239   AU        0.535095    0.681157    0.461026     0.007504
AU2240   AU        0.535499    0.715423    0.492808     0.007504
PD2241   PD        0.566841    0.680069    0.493644     0.005394
PD2242   PD        0.568981    0.716353    0.461875     0.005394
AU2243   AU        0.600886    0.681817    0.461877     0.007504
AU2244   AU        0.601102    0.716540    0.493291     0.007504
PD2245   PD        0.633446    0.680672    0.492974     0.005394
AU2246   AU        0.634590    0.714470    0.460719     0.007504
AU2247   AU        0.665900    0.680579    0.461196     0.007504
PD2248   PD        0.668160    0.716258    0.493006     0.005394
PD2249   PD        0.700965    0.678095    0.493635     0.005394
AU2250   AU        0.698503    0.715900    0.461647     0.007504
PD2251   PD        0.734411    0.683575    0.460688     0.005394
AU2252   AU        0.733502    0.716420    0.494141     0.007504
AU2253   AU        0.766870    0.678204    0.493113     0.007504
PD2254   PD        0.768474    0.747975    0.492551     0.005394
AU2255   AU        0.801306    0.678954    0.460767     0.007504
PD2256   PD        0.828615    0.799730    0.461547     0.005394
PD2257   PD        0.165903    0.751602    0.492313     0.005394
AU2258   AU        0.200600    0.753064    0.460151     0.007504
PD2259   PD        0.199487    0.785873    0.493871     0.005394
AU2260   AU        0.237997    0.754507    0.493070     0.007504
AU2261   AU        0.235160    0.787096    0.458450     0.007504
AU2262   AU        0.269496    0.752619    0.460087     0.007504
PD2263   PD        0.271255    0.786817    0.493211     0.005394
AU2264   AU        0.301948    0.754725    0.490968     0.007504
AU2265   AU        0.304444    0.789545    0.458462     0.007504
PD2266   PD        0.335680    0.749861    0.460173     0.005394
PD2267   PD        0.336232    0.786339    0.491577     0.005394
PD2268   PD        0.368363    0.750300    0.495095     0.005394
AU2269   AU        0.368064    0.788695    0.461118     0.007504
AU2270   AU        0.400546    0.751438    0.462548     0.007504
PD2271   PD        0.402256    0.786797    0.496354     0.005394
AU2272   AU        0.435989    0.752697    0.493433     0.007504
PD2273   PD        0.434153    0.786737    0.460535     0.005394
PD2274   PD        0.467259    0.750788    0.461686     0.005394
AU2275   AU        0.467705    0.788741    0.494338     0.007504
PD2276   PD        0.501807    0.754076    0.493706     0.005394
AU2277   AU        0.500297    0.789668    0.458746     0.007504
AU2278   AU        0.535924    0.753138    0.462968     0.007504
AU2279   AU        0.534953    0.789391    0.496247     0.007504
PD2280   PD        0.568627    0.752798    0.494743     0.005394
PD2281   PD        0.568381    0.786559    0.462995     0.005394
PD2282   PD        0.599898    0.755312    0.462617     0.005394
AU2283   AU        0.601791    0.789237    0.496323     0.007504
PD2284   PD        0.634756    0.751718    0.492794     0.005394
AU2285   AU        0.633378    0.787710    0.460885     0.007504
AU2286   AU        0.668410    0.754060    0.462672     0.007504
AU2287   AU        0.668940    0.787842    0.495244     0.007504
AU2288   AU        0.700649    0.752299    0.494231     0.007504
PD2289   PD        0.701276    0.786683    0.462279     0.005394
PD2290   PD        0.733162    0.750535    0.461352     0.005394
PD2291   PD        0.735824    0.784951    0.491843     0.005394
PD2292   PD        0.808527    0.740920    0.550631     0.005394
PD2293   PD        0.219474    0.881526    0.498711     0.005394
PD2294   PD        0.269738    0.825234    0.460237     0.005394
AU2295   AU        0.305680    0.823031    0.493421     0.007504
PD2296   PD        0.302822    0.860114    0.462301     0.005394
AU2297   AU        0.335969    0.824231    0.459499     0.007504
AU2298   AU        0.335983    0.860196    0.493162     0.007504
AU2299   AU        0.368081    0.824130    0.492550     0.007504
AU2300   AU        0.367827    0.859093    0.461565     0.007504
PD2301   PD        0.399235    0.824234    0.461381     0.005394
AU2302   AU        0.402172    0.862561    0.495003     0.007504
AU2303   AU        0.432321    0.823026    0.494255     0.007504
PD2304   PD        0.433379    0.859619    0.460927     0.005394
PD2305   PD        0.469503    0.823375    0.461084     0.005394
PD2306   PD        0.465583    0.856667    0.493621     0.005394
PD2307   PD        0.500320    0.825371    0.493983     0.005394
AU2308   AU        0.502563    0.857047    0.457665     0.007504
PD2309   PD        0.537435    0.823208    0.461070     0.005394
AU2310   AU        0.535177    0.859585    0.494933     0.007504
PD2311   PD        0.567720    0.823704    0.496836     0.005394
PD2312   PD        0.570170    0.856874    0.462317     0.005394
AU2313   AU        0.601175    0.823126    0.460899     0.007504
PD2314   PD        0.600289    0.858220    0.494938     0.005394
AU2315   AU        0.636799    0.822638    0.494629     0.007504
PD2316   PD        0.636681    0.854636    0.457812     0.005394
PD2317   PD        0.668488    0.820542    0.458489     0.005394
AU2318   AU        0.702315    0.821205    0.493599     0.007504
AU2319   AU        0.401136    0.894083    0.458858     0.007504
PD2320   PD        0.436678    0.896184    0.491129     0.005394
AU2321   AU        0.468663    0.891308    0.458679     0.007504
PD2322   PD        0.501283    0.891436    0.491851     0.005394
PD2323   PD        0.571584    0.928681    0.454731     0.005394
AU2324   AU        0.301082    0.076417    0.525857     0.007504
PD2325   PD        0.340826    0.074312    0.558859     0.005394
PD2326   PD        0.370643    0.074516    0.524255     0.005394
PD2327   PD        0.400159    0.076730    0.560579     0.005394
AU2328   AU        0.436816    0.077881    0.525845     0.007504
PD2329   PD        0.468256    0.000714    0.489223     0.005394
AU2330   AU        0.467983    0.076592    0.559197     0.007504
AU2331   AU        0.500575    0.075125    0.526108     0.007504
AU2332   AU        0.533589    0.076303    0.560029     0.007504
AU2333   AU        0.566289    0.075463    0.525078     0.007504
PD2334   PD        0.600954    0.076590    0.559595     0.005394
PD2335   PD        0.632381    0.073551    0.524514     0.005394
PD2336   PD        0.236630    0.147779    0.526893     0.005394
PD2337   PD        0.270152    0.112092    0.527542     0.005394
AU2338   AU        0.269375    0.145628    0.560100     0.007504
PD2339   PD        0.305208    0.110215    0.560647     0.005394
AU2340   AU        0.304187    0.146520    0.526597     0.007504
AU2341   AU        0.335735    0.111257    0.526581     0.007504
AU2342   AU        0.334746    0.147030    0.560755     0.007504
AU2343   AU        0.367578    0.111594    0.561020     0.007504
PD2344   PD        0.367451    0.149987    0.525147     0.005394
AU2345   AU        0.401749    0.113624    0.527259     0.007504
PD2346   PD        0.402454    0.144509    0.559713     0.005394
PD2347   PD        0.435128    0.111381    0.558886     0.005394
AU2348   AU        0.434723    0.147534    0.525425     0.007504
AU2349   AU        0.467755    0.112236    0.524829     0.007504
AU2350   AU        0.465939    0.146711    0.559631     0.007504
AU2351   AU        0.500979    0.113030    0.558210     0.007504
AU2352   AU        0.498042    0.146526    0.526312     0.007504
AU2353   AU        0.534069    0.112778    0.525212     0.007504
PD2354   PD        0.535457    0.147148    0.557763     0.005394
AU2355   AU        0.565857    0.111320    0.557190     0.007504
PD2356   PD        0.566160    0.150436    0.524852     0.005394
AU2357   AU        0.600998    0.110350    0.526853     0.007504
AU2358   AU        0.599801    0.147821    0.556853     0.007504
PD2359   PD        0.630801    0.113137    0.557004     0.005394
AU2360   AU        0.631643    0.148242    0.524994     0.007504
PD2361   PD        0.665309    0.107934    0.524171     0.005394
PD2362   PD        0.664740    0.147816    0.560052     0.005394
PD2363   PD        0.701058    0.144774    0.523165     0.005394
PD2364   PD        0.170532    0.216501    0.523842     0.005394
PD2365   PD        0.202339    0.185687    0.526804     0.005394
PD2366   PD        0.201277    0.218963    0.562849     0.005394
AU2367   AU        0.236253    0.183322    0.562162     0.007504
PD2368   PD        0.236647    0.217221    0.529850     0.005394
AU2369   AU        0.267378    0.182111    0.527405     0.007504
PD2370   PD        0.267821    0.218822    0.562700     0.005394
AU2371   AU        0.301598    0.183270    0.561295     0.007504
PD2372   PD        0.301567    0.215010    0.529100     0.005394
PD2373   PD        0.333295    0.178412    0.524764     0.005394
PD2374   PD        0.333862    0.217951    0.561456     0.005394
PD2375   PD        0.368935    0.179606    0.560326     0.005394
PD2376   PD        0.366120    0.215587    0.529011     0.005394
PD2377   PD        0.403769    0.182063    0.525756     0.005394
AU2378   AU        0.402713    0.217660    0.559414     0.007504
PD2379   PD        0.437117    0.181154    0.559930     0.005394
PD2380   PD        0.434962    0.219725    0.528620     0.005394
PD2381   PD        0.467516    0.183637    0.526416     0.005394
PD2382   PD        0.464369    0.218690    0.558084     0.005394
PD2383   PD        0.499861    0.183608    0.558935     0.005394
PD2384   PD        0.500008    0.218117    0.527308     0.005394
PD2385   PD        0.531910    0.182925    0.525141     0.005394
PD2386   PD        0.532766    0.221229    0.559850     0.005394
PD2387   PD        0.564704    0.184326    0.559508     0.005394
AU2388   AU        0.565198    0.219147    0.526640     0.007504
PD2389   PD        0.599688    0.184651    0.527119     0.005394
AU2390   AU        0.602035    0.219354    0.559529     0.007504
AU2391   AU        0.631990    0.182586    0.558978     0.007504
PD2392   PD        0.635812    0.220500    0.525768     0.005394
PD2393   PD        0.667882    0.181403    0.524627     0.005394
PD2394   PD        0.666037    0.216453    0.557523     0.005394
PD2395   PD        0.734501    0.148304    0.626618     0.005394
AU2396   AU        0.700468    0.217266    0.526352     0.007504
AU2397   AU        0.733423    0.182893    0.522546     0.007504
PD2398   PD        0.732052    0.216772    0.556490     0.005394
PD2399   PD        0.765296    0.181083    0.557521     0.005394
PD2400   PD        0.102441    0.288984    0.526722     0.005394
AU2401   AU        0.136375    0.254011    0.526642     0.007504
PD2402   PD        0.132834    0.289812    0.558678     0.005394
PD2403   PD        0.168168    0.253192    0.562462     0.005394
AU2404   AU        0.167640    0.290540    0.525844     0.007504
PD2405   PD        0.201849    0.252049    0.530892     0.005394
PD2406   PD        0.201873    0.292275    0.561168     0.005394
AU2407   AU        0.234200    0.254418    0.562197     0.007504
AU2408   AU        0.238002    0.288070    0.526583     0.007504
PD2409   PD        0.271202    0.251696    0.526858     0.005394
AU2410   AU        0.270278    0.287803    0.561742     0.007504
AU2411   AU        0.302233    0.252645    0.562564     0.007504
AU2412   AU        0.303667    0.288846    0.526014     0.007504
AU2413   AU        0.332933    0.252885    0.527651     0.007504
AU2414   AU        0.336454    0.288060    0.560122     0.007504
AU2415   AU        0.369071    0.253925    0.559877     0.007504
PD2416   PD        0.368157    0.285746    0.526646     0.005394
AU2417   AU        0.400986    0.252060    0.525884     0.007504
AU2418   AU        0.399544    0.289148    0.560279     0.007504
PD2419   PD        0.435168    0.256828    0.558147     0.005394
PD2420   PD        0.433405    0.289754    0.525043     0.005394
AU2421   AU        0.470097    0.255444    0.526220     0.007504
AU2422   AU        0.468553    0.290627    0.558736     0.007504
PD2423   PD        0.498927    0.254467    0.562767     0.005394
PD2424   PD        0.503119    0.291891    0.527066     0.005394
AU2425   AU        0.534558    0.254603    0.525947     0.007504
PD2426   PD        0.533275    0.291112    0.559358     0.005394
PD2427   PD        0.566545    0.253395    0.560370     0.005394
PD2428   PD        0.568461    0.289798    0.526068     0.005394
PD2429   PD        0.600696    0.253378    0.524439     0.005394
PD2430   PD        0.600841    0.288973    0.558096     0.005394
AU2431   AU        0.632571    0.255475    0.557475     0.007504
AU2432   AU        0.635813    0.291435    0.523243     0.007504
PD2433   PD        0.666918    0.257415    0.525379     0.005394
PD2434   PD        0.666886    0.291745    0.558063     0.005394
PD2435   PD        0.702304    0.253765    0.558610     0.005394
AU2436   AU        0.701368    0.288252    0.526854     0.007504
AU2437   AU        0.733936    0.252916    0.525916     0.007504
PD2438   PD        0.733415    0.289481    0.557508     0.005394
PD2439   PD        0.765780    0.249862    0.558895     0.005394
AU2440   AU        0.765310    0.289917    0.524600     0.007504
PD2441   PD        0.802895    0.259275    0.525590     0.005394
PD2442   PD        0.811076    0.293158    0.554885     0.005394
AU2443   AU        0.865021    0.287725    0.490633     0.007504
PD2444   PD        0.070486    0.289044    0.560601     0.005394
PD2445   PD        0.102428    0.360151    0.532018     0.005394
AU2446   AU        0.135026    0.326769    0.527620     0.007504
AU2447   AU        0.136817    0.360669    0.561323     0.007504
AU2448   AU        0.168440    0.325129    0.562316     0.007504
AU2449   AU        0.169984    0.359435    0.527948     0.007504
PD2450   PD        0.200431    0.322243    0.524937     0.005394
PD2451   PD        0.200972    0.360485    0.562308     0.005394
PD2452   PD        0.235522    0.323043    0.558216     0.005394
PD2453   PD        0.235376    0.359026    0.531005     0.005394
PD2454   PD        0.269599    0.325018    0.526701     0.005394
AU2455   AU        0.268198    0.360279    0.561080     0.007504
PD2456   PD        0.305705    0.324605    0.560394     0.005394
AU2457   AU        0.301434    0.361424    0.526356     0.007504
AU2458   AU        0.336368    0.323135    0.526699     0.007504
PD2459   PD        0.333682    0.357117    0.561195     0.005394
AU2460   AU        0.368485    0.323137    0.563212     0.007504
AU2461   AU        0.369419    0.360401    0.529386     0.007504
PD2462   PD        0.397965    0.324822    0.529570     0.005394
PD2463   PD        0.402442    0.361477    0.560528     0.005394
AU2464   AU        0.432506    0.324225    0.559769     0.007504
AU2465   AU        0.434651    0.360016    0.528067     0.007504
AU2466   AU        0.467038    0.328034    0.526131     0.007504
PD2467   PD        0.467583    0.358480    0.558997     0.005394
AU2468   AU        0.502999    0.325008    0.558671     0.007504
AU2469   AU        0.502265    0.359823    0.524627     0.007504
AU2470   AU        0.537516    0.325921    0.526772     0.007504
AU2471   AU        0.535438    0.361546    0.556810     0.007504
PD2472   PD        0.568622    0.325141    0.560533     0.005394
AU2473   AU        0.569873    0.360595    0.525085     0.007504
AU2474   AU        0.602286    0.326407    0.525273     0.007504
AU2475   AU        0.601184    0.360473    0.559376     0.007504
AU2476   AU        0.633761    0.324432    0.559511     0.007504
AU2477   AU        0.633896    0.361199    0.526226     0.007504
AU2478   AU        0.667923    0.326075    0.524381     0.007504
PD2479   PD        0.666312    0.361244    0.559126     0.005394
PD2480   PD        0.699216    0.327160    0.558200     0.005394
AU2481   AU        0.699056    0.360469    0.525048     0.007504
AU2482   AU        0.732341    0.326584    0.525214     0.007504
PD2483   PD        0.731415    0.360188    0.558310     0.005394
AU2484   AU        0.764929    0.326154    0.558489     0.007504
AU2485   AU        0.766871    0.362227    0.524441     0.007504
AU2486   AU        0.798532    0.324943    0.523877     0.007504
AU2487   AU        0.800805    0.363148    0.558561     0.007504
PD2488   PD        0.831228    0.327423    0.559195     0.005394
PD2489   PD        0.834646    0.358934    0.523465     0.005394
PD2490   PD        0.098978    0.399208    0.560256     0.005394
PD2491   PD        0.099081    0.432960    0.529489     0.005394
PD2492   PD        0.137216    0.393016    0.527313     0.005394
AU2493   AU        0.134630    0.428828    0.563981     0.007504
PD2494   PD        0.169233    0.394532    0.563546     0.005394
PD2495   PD        0.168171    0.432754    0.529413     0.005394
PD2496   PD        0.201969    0.396159    0.526576     0.005394
PD2497   PD        0.201635    0.430722    0.557644     0.005394
PD2498   PD        0.235286    0.396644    0.560358     0.005394
AU2499   AU        0.234157    0.432600    0.526771     0.007504
AU2500   AU        0.266893    0.397687    0.528115     0.007504
AU2501   AU        0.265335    0.433676    0.560105     0.007504
AU2502   AU        0.300969    0.398011    0.562656     0.007504
PD2503   PD        0.300554    0.430367    0.527149     0.005394
PD2504   PD        0.334616    0.394568    0.529815     0.005394
PD2505   PD        0.332435    0.433229    0.561827     0.005394
AU2506   AU        0.368397    0.397321    0.560072     0.007504
PD2507   PD        0.365916    0.432150    0.529569     0.005394
AU2508   AU        0.402026    0.396974    0.526980     0.007504
AU2509   AU        0.402952    0.433128    0.559015     0.007504
AU2510   AU        0.432466    0.395333    0.561488     0.007504
PD2511   PD        0.433469    0.431144    0.528403     0.005394
AU2512   AU        0.466058    0.395296    0.529542     0.007504
AU2513   AU        0.467645    0.431874    0.560321     0.007504
PD2514   PD        0.500499    0.391232    0.560118     0.005394
PD2515   PD        0.502913    0.429696    0.526516     0.005394
PD2516   PD        0.534745    0.397266    0.525804     0.005394
PD2517   PD        0.533777    0.428629    0.559378     0.005394
AU2518   AU        0.568822    0.395110    0.561137     0.007504
AU2519   AU        0.565990    0.431002    0.527660     0.007504
AU2520   AU        0.601843    0.395278    0.526109     0.007504
AU2521   AU        0.601158    0.432426    0.556874     0.007504
PD2522   PD        0.634404    0.394853    0.557236     0.005394
AU2523   AU        0.634206    0.431911    0.523835     0.007504
PD2524   PD        0.667484    0.394855    0.525477     0.005394
AU2525   AU        0.666478    0.431070    0.559271     0.007504
PD2526   PD        0.699962    0.398173    0.561373     0.005394
AU2527   AU        0.701126    0.433442    0.526650     0.007504
PD2528   PD        0.734544    0.398105    0.524580     0.005394
AU2529   AU        0.732241    0.430346    0.557967     0.007504
AU2530   AU        0.763836    0.396362    0.559050     0.007504
AU2531   AU        0.767231    0.432011    0.526661     0.007504
PD2532   PD        0.799817    0.397109    0.525396     0.005394
AU2533   AU        0.799627    0.433845    0.561053     0.007504
PD2534   PD        0.832311    0.399205    0.563539     0.005394
AU2535   AU        0.832097    0.433510    0.526953     0.007504
PD2536   PD        0.000667    0.534310    0.526060     0.005394
AU2537   AU        0.103474    0.467155    0.561424     0.007504
PD2538   PD        0.104762    0.503789    0.527265     0.005394
PD2539   PD        0.134968    0.466204    0.525221     0.005394
PD2540   PD        0.138820    0.503399    0.561902     0.005394
AU2541   AU        0.169490    0.467481    0.558158     0.007504
PD2542   PD        0.166306    0.505408    0.526143     0.005394
PD2543   PD        0.201086    0.467684    0.524485     0.005394
PD2544   PD        0.200280    0.501439    0.561660     0.005394
PD2545   PD        0.235659    0.468398    0.558913     0.005394
AU2546   AU        0.236115    0.503229    0.525892     0.007504
PD2547   PD        0.270148    0.469186    0.524548     0.005394
PD2548   PD        0.270468    0.504946    0.560130     0.005394
PD2549   PD        0.301831    0.467982    0.558265     0.005394
AU2550   AU        0.301054    0.504712    0.526879     0.007504
AU2551   AU        0.333218    0.468668    0.528005     0.007504
AU2552   AU        0.334806    0.504488    0.561535     0.007504
AU2553   AU        0.366607    0.468379    0.560798     0.007504
AU2554   AU        0.367767    0.504565    0.527033     0.007504
AU2555   AU        0.401261    0.467359    0.527585     0.007504
PD2556   PD        0.401040    0.502252    0.558902     0.005394
AU2557   AU        0.435762    0.469049    0.560456     0.007504
AU2558   AU        0.435276    0.502790    0.526098     0.007504
AU2559   AU        0.466530    0.463790    0.525304     0.007504
PD2560   PD        0.467075    0.501796    0.559159     0.005394
PD2561   PD        0.501707    0.465215    0.559014     0.005394
AU2562   AU        0.500673    0.499820    0.526382     0.007504
AU2563   AU        0.534577    0.466732    0.525291     0.007504
PD2564   PD        0.535420    0.502918    0.559396     0.005394
AU2565   AU        0.565790    0.466770    0.557705     0.007504
AU2566   AU        0.567432    0.502345    0.525375     0.007504
AU2567   AU        0.600835    0.467150    0.525854     0.007504
PD2568   PD        0.601963    0.502709    0.558301     0.005394
AU2569   AU        0.634095    0.464296    0.556767     0.007504
AU2570   AU        0.632361    0.502066    0.525053     0.007504
AU2571   AU        0.669301    0.468171    0.525450     0.007504
AU2572   AU        0.665500    0.502132    0.558293     0.007504
AU2573   AU        0.699449    0.467409    0.558493     0.007504
AU2574   AU        0.700002    0.504162    0.525738     0.007504
AU2575   AU        0.733804    0.467486    0.525658     0.007504
AU2576   AU        0.732654    0.502470    0.559507     0.007504
PD2577   PD        0.766122    0.468517    0.560107     0.005394
PD2578   PD        0.765924    0.503975    0.527049     0.005394
AU2579   AU        0.799214    0.469722    0.525875     0.007504
PD2580   PD        0.797657    0.502090    0.558393     0.005394
AU2581   AU        0.830940    0.468251    0.559691     0.007504
PD2582   PD        0.832470    0.502977    0.527460     0.005394
AU2583   AU        0.867860    0.468584    0.528411     0.007504
PD2584   PD        0.068653    0.540269    0.592062     0.005394
PD2585   PD        0.069186    0.574224    0.561706     0.005394
PD2586   PD        0.136788    0.539692    0.527141     0.005394
AU2587   AU        0.136708    0.574505    0.560897     0.007504
AU2588   AU        0.168723    0.539917    0.561533     0.007504
PD2589   PD        0.169116    0.577807    0.526267     0.005394
PD2590   PD        0.202042    0.537810    0.527243     0.005394
PD2591   PD        0.200709    0.573185    0.562927     0.005394
AU2592   AU        0.231911    0.537986    0.560689     0.007504
PD2593   PD        0.233792    0.574553    0.527926     0.005394
AU2594   AU        0.267701    0.538425    0.529365     0.007504
PD2595   PD        0.269462    0.573126    0.561541     0.005394
AU2596   AU        0.301973    0.540831    0.561705     0.007504
AU2597   AU        0.299477    0.573723    0.527248     0.007504
AU2598   AU        0.334349    0.540319    0.527721     0.007504
AU2599   AU        0.335251    0.574180    0.560214     0.007504
PD2600   PD        0.368246    0.538808    0.559194     0.005394
AU2601   AU        0.368160    0.572653    0.526372     0.007504
AU2602   AU        0.400674    0.537411    0.524711     0.007504
PD2603   PD        0.402171    0.573221    0.560480     0.005394
PD2604   PD        0.436468    0.537997    0.561803     0.005394
PD2605   PD        0.431941    0.576582    0.528175     0.005394
AU2606   AU        0.468454    0.539217    0.524645     0.007504
PD2607   PD        0.467077    0.574290    0.556740     0.005394
AU2608   AU        0.501099    0.536653    0.559311     0.007504
PD2609   PD        0.502035    0.575676    0.527993     0.005394
PD2610   PD        0.532259    0.536016    0.526344     0.005394
PD2611   PD        0.533200    0.573969    0.560668     0.005394
PD2612   PD        0.568961    0.539407    0.560587     0.005394
AU2613   AU        0.566681    0.574667    0.527328     0.007504
AU2614   AU        0.600171    0.537758    0.526431     0.007504
AU2615   AU        0.601735    0.576387    0.557743     0.007504
AU2616   AU        0.635473    0.541367    0.559682     0.007504
AU2617   AU        0.632746    0.576520    0.527237     0.007504
PD2618   PD        0.667251    0.538103    0.526666     0.005394
AU2619   AU        0.668277    0.576129    0.558837     0.007504
PD2620   PD        0.698739    0.541248    0.559033     0.005394
PD2621   PD        0.700518    0.576981    0.529084     0.005394
PD2622   PD        0.733028    0.539927    0.527983     0.005394
AU2623   AU        0.731838    0.575511    0.559990     0.007504
AU2624   AU        0.766138    0.539145    0.560063     0.007504
AU2625   AU        0.765370    0.574425    0.524958     0.007504
AU2626   AU        0.798678    0.537470    0.526831     0.007504
PD2627   PD        0.796019    0.574393    0.557561     0.005394
PD2628   PD        0.828992    0.539509    0.561608     0.005394
AU2629   AU        0.832346    0.571208    0.529757     0.007504
PD2630   PD        0.101531    0.609819    0.559623     0.005394
PD2631   PD        0.066430    0.609451    0.528057     0.005394
PD2632   PD        0.138591    0.609527    0.526979     0.005394
PD2633   PD        0.138962    0.644903    0.559658     0.005394
PD2634   PD        0.168642    0.611900    0.561964     0.005394
AU2635   AU        0.171485    0.647848    0.527811     0.007504
AU2636   AU        0.200890    0.611056    0.528533     0.007504
PD2637   PD        0.203299    0.647545    0.562817     0.005394
PD2638   PD        0.236035    0.609209    0.558136     0.005394
AU2639   AU        0.235115    0.645968    0.525416     0.007504
PD2640   PD        0.268382    0.608091    0.526111     0.005394
PD2641   PD        0.267981    0.643639    0.560943     0.005394
AU2642   AU        0.303324    0.609217    0.559952     0.007504
PD2643   PD        0.300314    0.646018    0.529255     0.005394
AU2644   AU        0.336067    0.610586    0.526101     0.007504
AU2645   AU        0.334594    0.644958    0.560142     0.007504
AU2646   AU        0.366528    0.611023    0.559544     0.007504
PD2647   PD        0.367090    0.645890    0.527189     0.005394
AU2648   AU        0.398446    0.611354    0.527722     0.007504
AU2649   AU        0.400538    0.646805    0.561085     0.007504
PD2650   PD        0.433522    0.607187    0.563337     0.005394
AU2651   AU        0.434537    0.645888    0.528374     0.007504
PD2652   PD        0.466621    0.609049    0.526381     0.005394
PD2653   PD        0.469108    0.646561    0.559265     0.005394
AU2654   AU        0.501234    0.609205    0.560605     0.007504
AU2655   AU        0.501866    0.645956    0.527110     0.007504
PD2656   PD        0.532918    0.609759    0.528454     0.005394
AU2657   AU        0.533324    0.646645    0.561314     0.007504
AU2658   AU        0.566843    0.608290    0.560000     0.007504
PD2659   PD        0.564728    0.646073    0.528369     0.005394
PD2660   PD        0.598479    0.610432    0.526303     0.005394
AU2661   AU        0.601673    0.645915    0.562137     0.007504
PD2662   PD        0.637121    0.611089    0.560554     0.005394
PD2663   PD        0.633233    0.646663    0.528319     0.005394
AU2664   AU        0.666279    0.610403    0.527082     0.007504
PD2665   PD        0.664602    0.646059    0.561735     0.005394
PD2666   PD        0.699737    0.610713    0.559368     0.005394
PD2667   PD        0.698938    0.645405    0.525456     0.005394
AU2668   AU        0.733269    0.610178    0.526740     0.007504
AU2669   AU        0.733114    0.644815    0.560979     0.007504
AU2670   AU        0.765015    0.608126    0.560682     0.007504
AU2671   AU        0.766880    0.642514    0.526834     0.007504
AU2672   AU        0.801272    0.608269    0.526889     0.007504
PD2673   PD        0.799025    0.644995    0.560007     0.005394
PD2674   PD        0.835254    0.607838    0.562404     0.005394
PD2675   PD        0.831448    0.649580    0.530159     0.005394
PD2676   PD        0.133536    0.681243    0.522869     0.005394
AU2677   AU        0.167964    0.683275    0.559870     0.007504
PD2678   PD        0.172729    0.714487    0.525080     0.005394
AU2679   AU        0.202817    0.684084    0.526942     0.007504
PD2680   PD        0.200693    0.720325    0.560546     0.005394
PD2681   PD        0.234268    0.684698    0.558722     0.005394
AU2682   AU        0.234394    0.719453    0.525747     0.007504
AU2683   AU        0.266841    0.681655    0.526338     0.007504
PD2684   PD        0.266767    0.718770    0.559244     0.005394
PD2685   PD        0.301429    0.682054    0.558073     0.005394
AU2686   AU        0.300642    0.716638    0.527684     0.007504
PD2687   PD        0.333549    0.681035    0.525849     0.005394
PD2688   PD        0.334989    0.718370    0.559402     0.005394
AU2689   AU        0.367625    0.681841    0.561519     0.007504
AU2690   AU        0.368160    0.715071    0.526980     0.007504
AU2691   AU        0.403323    0.682429    0.526982     0.007504
PD2692   PD        0.399004    0.714676    0.561290     0.005394
PD2693   PD        0.434820    0.680997    0.560590     0.005394
PD2694   PD        0.434163    0.718714    0.526629     0.005394
AU2695   AU        0.466898    0.680045    0.527415     0.007504
PD2696   PD        0.467937    0.713995    0.560526     0.005394
PD2697   PD        0.501001    0.680882    0.558970     0.005394
PD2698   PD        0.500691    0.716645    0.527137     0.005394
PD2699   PD        0.535854    0.681452    0.525992     0.005394
AU2700   AU        0.534331    0.714351    0.561532     0.007504
PD2701   PD        0.568118    0.681700    0.562654     0.005394
AU2702   AU        0.568863    0.717906    0.525309     0.007504
AU2703   AU        0.599853    0.679776    0.529699     0.007504
AU2704   AU        0.602094    0.717463    0.560044     0.007504
PD2705   PD        0.634192    0.681044    0.560631     0.005394
AU2706   AU        0.633777    0.714810    0.524318     0.007504
AU2707   AU        0.666235    0.681042    0.526408     0.007504
PD2708   PD        0.668163    0.717783    0.559128     0.005394
PD2709   PD        0.699684    0.679725    0.559422     0.005394
AU2710   AU        0.700893    0.716491    0.526176     0.007504
AU2711   AU        0.734645    0.680576    0.525039     0.007504
AU2712   AU        0.733342    0.714864    0.562810     0.007504
AU2713   AU        0.767272    0.680885    0.558656     0.007504
PD2714   PD        0.763464    0.717076    0.529076     0.005394
AU2715   AU        0.798109    0.681519    0.524102     0.007504
PD2716   PD        0.203730    0.753650    0.525751     0.005394
AU2717   AU        0.237065    0.755049    0.558685     0.007504
AU2718   AU        0.236065    0.788876    0.527041     0.007504
PD2719   PD        0.269258    0.755479    0.526579     0.005394
AU2720   AU        0.270919    0.789802    0.560889     0.007504
PD2721   PD        0.300608    0.752437    0.560528     0.005394
PD2722   PD        0.304613    0.787928    0.528258     0.005394
AU2723   AU        0.334655    0.752479    0.526945     0.007504
PD2724   PD        0.333971    0.787839    0.559902     0.005394
PD2725   PD        0.367568    0.754503    0.557684     0.005394
AU2726   AU        0.367795    0.787458    0.526299     0.007504
PD2727   PD        0.400194    0.750264    0.524969     0.005394
AU2728   AU        0.400194    0.787816    0.559280     0.007504
AU2729   AU        0.432969    0.749988    0.560311     0.007504
AU2730   AU        0.434204    0.787551    0.526447     0.007504
AU2731   AU        0.468087    0.752302    0.528575     0.007504
AU2732   AU        0.466491    0.787430    0.562398     0.007504
PD2733   PD        0.498991    0.752690    0.560432     0.005394
AU2734   AU        0.500472    0.787735    0.528237     0.007504
AU2735   AU        0.533309    0.753097    0.528338     0.007504
AU2736   AU        0.533599    0.788064    0.559187     0.007504
PD2737   PD        0.568296    0.752250    0.561466     0.005394
AU2738   AU        0.567833    0.786888    0.529899     0.007504
AU2739   AU        0.602794    0.751850    0.526846     0.007504
AU2740   AU        0.601310    0.786797    0.558163     0.007504
AU2741   AU        0.635971    0.750925    0.558384     0.007504
AU2742   AU        0.637017    0.788014    0.527718     0.007504
AU2743   AU        0.668732    0.750503    0.525357     0.007504
AU2744   AU        0.667866    0.785685    0.561406     0.007504
AU2745   AU        0.700758    0.751406    0.560316     0.007504
PD2746   PD        0.701542    0.785186    0.527379     0.005394
AU2747   AU        0.732331    0.751871    0.528800     0.007504
PD2748   PD        0.272211    0.822501    0.525935     0.005394
AU2749   AU        0.303567    0.824373    0.559805     0.007504
AU2750   AU        0.304340    0.857621    0.526731     0.007504
AU2751   AU        0.336416    0.823941    0.526349     0.007504
AU2752   AU        0.336105    0.859249    0.557857     0.007504
AU2753   AU        0.367260    0.821280    0.559752     0.007504
AU2754   AU        0.368640    0.860737    0.526509     0.007504
AU2755   AU        0.400352    0.824691    0.524975     0.007504
AU2756   AU        0.400719    0.858535    0.561271     0.007504
PD2757   PD        0.435384    0.821239    0.559483     0.005394
PD2758   PD        0.434286    0.859211    0.525157     0.005394
PD2759   PD        0.466433    0.824923    0.526672     0.005394
PD2760   PD        0.467024    0.858598    0.560892     0.005394
AU2761   AU        0.498627    0.822526    0.562967     0.007504
PD2762   PD        0.498212    0.858528    0.529065     0.005394
PD2763   PD        0.535982    0.823967    0.526656     0.005394
AU2764   AU        0.532073    0.859769    0.557653     0.007504
AU2765   AU        0.567149    0.824127    0.561512     0.007504
AU2766   AU        0.566640    0.860689    0.527670     0.007504
PD2767   PD        0.601098    0.824097    0.527741     0.005394
PD2768   PD        0.600160    0.858228    0.561465     0.005394
AU2769   AU        0.635424    0.823017    0.559237     0.007504
PD2770   PD        0.637848    0.859001    0.526151     0.005394
PD2771   PD        0.665170    0.858985    0.564908     0.005394
PD2772   PD        0.469699    0.896938    0.525688     0.005394
AU2773   AU        0.368519    0.078131    0.594864     0.007504
PD2774   PD        0.402938    0.080017    0.631161     0.005394
AU2775   AU        0.434910    0.075638    0.592106     0.007504
AU2776   AU        0.465840    0.075704    0.626683     0.007504
PD2777   PD        0.500538    0.076789    0.591843     0.005394
PD2778   PD        0.528858    0.074750    0.623239     0.005394
AU2779   AU        0.566130    0.076429    0.593330     0.007504
PD2780   PD        0.230611    0.114026    0.558177     0.005394
PD2781   PD        0.271415    0.144722    0.622282     0.005394
PD2782   PD        0.301316    0.110781    0.628232     0.005394
AU2783   AU        0.300712    0.146600    0.593371     0.007504
PD2784   PD        0.334019    0.111708    0.595002     0.005394
AU2785   AU        0.334529    0.147864    0.626190     0.007504
AU2786   AU        0.368098    0.113569    0.625764     0.007504
AU2787   AU        0.369839    0.146397    0.592284     0.007504
AU2788   AU        0.403765    0.111292    0.592662     0.007504
AU2789   AU        0.402103    0.147236    0.626419     0.007504
PD2790   PD        0.434740    0.113482    0.625163     0.005394
PD2791   PD        0.434957    0.146072    0.591809     0.005394
AU2792   AU        0.467091    0.109405    0.593342     0.007504
PD2793   PD        0.467168    0.146209    0.627603     0.005394
PD2794   PD        0.499769    0.111493    0.624607     0.005394
AU2795   AU        0.499309    0.146880    0.591166     0.007504
AU2796   AU        0.532638    0.112622    0.592098     0.007504
AU2797   AU        0.533315    0.147872    0.624847     0.007504
AU2798   AU        0.565535    0.111481    0.623612     0.007504
AU2799   AU        0.565518    0.148116    0.591997     0.007504
AU2800   AU        0.600674    0.113314    0.590922     0.007504
PD2801   PD        0.599036    0.146718    0.623255     0.005394
PD2802   PD        0.629824    0.110409    0.625165     0.005394
PD2803   PD        0.633977    0.147454    0.593393     0.005394
PD2804   PD        0.664932    0.144896    0.628839     0.005394
AU2805   AU        0.661925    0.110250    0.592869     0.007504
PD2806   PD        0.170714    0.215842    0.593910     0.005394
PD2807   PD        0.201218    0.146649    0.625461     0.005394
AU2808   AU        0.203751    0.221060    0.629156     0.007504
PD2809   PD        0.233464    0.183075    0.625948     0.005394
AU2810   AU        0.236488    0.220018    0.593781     0.007504
AU2811   AU        0.270600    0.181178    0.593629     0.007504
AU2812   AU        0.267437    0.215521    0.626665     0.007504
AU2813   AU        0.300406    0.181661    0.627463     0.007504
PD2814   PD        0.303410    0.217303    0.594891     0.005394
PD2815   PD        0.333317    0.180632    0.592147     0.005394
AU2816   AU        0.334324    0.218469    0.626267     0.007504
AU2817   AU        0.368387    0.183721    0.627219     0.007504
AU2818   AU        0.368333    0.215592    0.592102     0.007504
AU2819   AU        0.401561    0.183745    0.594133     0.007504
PD2820   PD        0.403671    0.217541    0.625549     0.005394
AU2821   AU        0.436374    0.180816    0.626777     0.007504
PD2822   PD        0.435520    0.219365    0.590996     0.005394
AU2823   AU        0.468003    0.182891    0.593706     0.007504
AU2824   AU        0.467731    0.218899    0.626788     0.007504
AU2825   AU        0.498674    0.180688    0.626237     0.007504
PD2826   PD        0.501271    0.218496    0.592172     0.005394
AU2827   AU        0.532377    0.181958    0.591312     0.007504
PD2828   PD        0.531081    0.219918    0.625620     0.005394
AU2829   AU        0.565320    0.180840    0.625565     0.007504
AU2830   AU        0.565943    0.217537    0.595283     0.007504
AU2831   AU        0.598506    0.183076    0.594055     0.007504
PD2832   PD        0.601083    0.219165    0.624120     0.005394
PD2833   PD        0.631142    0.182257    0.622981     0.005394
AU2834   AU        0.632568    0.219075    0.590560     0.007504
PD2835   PD        0.666640    0.182925    0.590418     0.005394
AU2836   AU        0.664340    0.216099    0.624614     0.007504
PD2837   PD        0.701048    0.181543    0.686873     0.005394
PD2838   PD        0.702481    0.218399    0.591890     0.005394
PD2839   PD        0.730449    0.179239    0.592916     0.005394
PD2840   PD        0.735684    0.217537    0.625470     0.005394
AU2841   AU        0.763754    0.215079    0.592333     0.007504
PD2842   PD        0.130443    0.271850    0.632670     0.005394
PD2843   PD        0.166173    0.252884    0.624951     0.005394
AU2844   AU        0.170052    0.288440    0.594962     0.007504
AU2845   AU        0.202723    0.254500    0.594322     0.007504
PD2846   PD        0.201635    0.288555    0.628821     0.005394
PD2847   PD        0.236309    0.253241    0.628173     0.005394
PD2848   PD        0.238865    0.288516    0.593903     0.005394
PD2849   PD        0.268892    0.255575    0.596839     0.005394
PD2850   PD        0.265169    0.288666    0.627523     0.005394
AU2851   AU        0.300244    0.253463    0.628224     0.007504
PD2852   PD        0.302375    0.288762    0.595089     0.005394
AU2853   AU        0.334882    0.252726    0.593178     0.007504
AU2854   AU        0.334864    0.288216    0.626337     0.007504
AU2855   AU        0.368073    0.250252    0.626815     0.007504
PD2856   PD        0.366094    0.287177    0.593048     0.005394
PD2857   PD        0.401413    0.255248    0.593565     0.005394
PD2858   PD        0.399879    0.288724    0.625538     0.005394
AU2859   AU        0.434735    0.252158    0.625796     0.007504
PD2860   PD        0.433797    0.289453    0.593787     0.005394
AU2861   AU        0.467823    0.255516    0.593591     0.007504
PD2862   PD        0.467038    0.288319    0.628441     0.005394
PD2863   PD        0.498166    0.255238    0.626231     0.005394
AU2864   AU        0.500214    0.291080    0.593381     0.007504
AU2865   AU        0.532660    0.256058    0.593258     0.007504
AU2866   AU        0.532788    0.289928    0.625663     0.007504
AU2867   AU        0.566534    0.253231    0.627853     0.007504
AU2868   AU        0.568800    0.288256    0.593166     0.007504
PD2869   PD        0.599813    0.254369    0.591238     0.005394
PD2870   PD        0.601195    0.289758    0.625504     0.005394
PD2871   PD        0.631262    0.254852    0.623932     0.005394
PD2872   PD        0.634283    0.291112    0.590833     0.005394
PD2873   PD        0.666422    0.252160    0.591188     0.005394
PD2874   PD        0.667054    0.291129    0.624975     0.005394
AU2875   AU        0.700118    0.254384    0.626512     0.007504
PD2876   PD        0.697578    0.291461    0.589603     0.005394
PD2877   PD        0.734128    0.253391    0.591229     0.005394
PD2878   PD        0.734570    0.289157    0.624981     0.005394
PD2879   PD        0.764673    0.256833    0.624713     0.005394
PD2880   PD        0.766526    0.287777    0.590097     0.005394
PD2881   PD        0.801834    0.293804    0.624076     0.005394
AU2882   AU        0.100724    0.360778    0.593183     0.007504
AU2883   AU        0.135137    0.326075    0.594014     0.007504
AU2884   AU        0.136902    0.361046    0.626779     0.007504
PD2885   PD        0.166915    0.322792    0.630651     0.005394
PD2886   PD        0.170927    0.360915    0.595921     0.005394
PD2887   PD        0.202418    0.326238    0.595647     0.005394
AU2888   AU        0.200015    0.362491    0.628565     0.007504
AU2889   AU        0.234805    0.326197    0.625443     0.007504
PD2890   PD        0.237276    0.362898    0.594399     0.005394
PD2891   PD        0.268722    0.324072    0.595502     0.005394
PD2892   PD        0.264010    0.362202    0.627518     0.005394
PD2893   PD        0.301351    0.327956    0.628851     0.005394
PD2894   PD        0.302635    0.360873    0.594430     0.005394
AU2895   AU        0.335260    0.324763    0.595022     0.007504
AU2896   AU        0.337830    0.362379    0.626682     0.007504
PD2897   PD        0.366803    0.326563    0.626748     0.005394
AU2898   AU        0.369060    0.361634    0.592931     0.007504
AU2899   AU        0.400267    0.324663    0.594024     0.007504
AU2900   AU        0.401411    0.360579    0.627809     0.007504
PD2901   PD        0.434389    0.324792    0.625513     0.005394
AU2902   AU        0.433830    0.360644    0.592272     0.007504
PD2903   PD        0.465149    0.325614    0.593691     0.005394
AU2904   AU        0.467154    0.360767    0.624812     0.007504
AU2905   AU        0.498211    0.327061    0.628034     0.007504
AU2906   AU        0.499167    0.359711    0.593443     0.007504
PD2907   PD        0.534432    0.325334    0.591005     0.005394
PD2908   PD        0.532898    0.359865    0.627849     0.005394
PD2909   PD        0.568716    0.327368    0.626620     0.005394
PD2910   PD        0.568452    0.361144    0.595279     0.005394
AU2911   AU        0.602821    0.325071    0.592743     0.007504
AU2912   AU        0.601639    0.362643    0.626002     0.007504
AU2913   AU        0.634266    0.327392    0.625756     0.007504
AU2914   AU        0.635055    0.362572    0.591229     0.007504
AU2915   AU        0.666310    0.327460    0.593410     0.007504
AU2916   AU        0.667084    0.359809    0.627434     0.007504
PD2917   PD        0.700811    0.324543    0.626331     0.005394
PD2918   PD        0.698154    0.360183    0.592392     0.005394
PD2919   PD        0.731852    0.323274    0.590454     0.005394
PD2920   PD        0.731811    0.363179    0.627077     0.005394
PD2921   PD        0.763798    0.327820    0.623736     0.005394
AU2922   AU        0.766349    0.363315    0.591556     0.007504
AU2923   AU        0.796096    0.325599    0.589586     0.007504
PD2924   PD        0.799489    0.360934    0.624539     0.005394
AU2925   AU        0.830729    0.362243    0.592634     0.007504
AU2926   AU        0.100825    0.394957    0.627946     0.007504
AU2927   AU        0.100076    0.430802    0.594040     0.007504
PD2928   PD        0.135598    0.396618    0.596288     0.005394
PD2929   PD        0.135340    0.433360    0.627055     0.005394
PD2930   PD        0.167623    0.398331    0.630658     0.005394
AU2931   AU        0.169916    0.432068    0.592737     0.007504
AU2932   AU        0.201504    0.395424    0.594626     0.007504
PD2933   PD        0.201647    0.431575    0.627324     0.005394
PD2934   PD        0.234191    0.396245    0.627647     0.005394
AU2935   AU        0.232981    0.430126    0.593321     0.007504
AU2936   AU        0.268930    0.397812    0.594169     0.007504
PD2937   PD        0.267563    0.430223    0.629338     0.005394
AU2938   AU        0.301249    0.395726    0.628537     0.007504
PD2939   PD        0.299516    0.435652    0.595246     0.005394
AU2940   AU        0.333998    0.398731    0.592915     0.007504
PD2941   PD        0.335881    0.430252    0.627352     0.005394
PD2942   PD        0.368683    0.398243    0.625068     0.005394
PD2943   PD        0.367931    0.433127    0.592357     0.005394
AU2944   AU        0.401149    0.396790    0.594224     0.007504
AU2945   AU        0.402180    0.432436    0.627375     0.007504
AU2946   AU        0.433703    0.395956    0.626156     0.007504
PD2947   PD        0.433224    0.431320    0.593097     0.005394
AU2948   AU        0.467354    0.396516    0.591885     0.007504
AU2949   AU        0.466348    0.431510    0.627285     0.007504
AU2950   AU        0.501350    0.395809    0.625099     0.007504
AU2951   AU        0.502601    0.429858    0.592442     0.007504
PD2952   PD        0.536571    0.392511    0.593562     0.005394
AU2953   AU        0.535808    0.431868    0.626591     0.007504
PD2954   PD        0.566884    0.396710    0.625431     0.005394
PD2955   PD        0.566798    0.433526    0.592856     0.005394
PD2956   PD        0.600638    0.398413    0.591823     0.005394
PD2957   PD        0.600682    0.436104    0.623843     0.005394
AU2958   AU        0.633624    0.399147    0.625033     0.007504
PD2959   PD        0.632444    0.433339    0.590028     0.005394
AU2960   AU        0.666442    0.398044    0.592875     0.007504
PD2961   PD        0.668314    0.434166    0.624569     0.005394
AU2962   AU        0.699915    0.396335    0.624878     0.007504
AU2963   AU        0.701209    0.432794    0.592150     0.007504
PD2964   PD        0.731099    0.397181    0.591976     0.005394
PD2965   PD        0.731178    0.430404    0.626278     0.005394
PD2966   PD        0.762749    0.398703    0.623638     0.005394
AU2967   AU        0.765879    0.432900    0.590847     0.007504
PD2968   PD        0.798841    0.396826    0.592560     0.005394
AU2969   AU        0.797324    0.433269    0.625357     0.007504
PD2970   PD        0.830981    0.399987    0.626806     0.005394
AU2971   AU        0.832191    0.434187    0.593336     0.007504
PD2972   PD        0.101972    0.473211    0.621511     0.005394
PD2973   PD        0.102010    0.503246    0.591239     0.005394
AU2974   AU        0.136665    0.466758    0.592411     0.007504
AU2975   AU        0.133890    0.505308    0.626552     0.007504
AU2976   AU        0.166829    0.467626    0.627627     0.007504
PD2977   PD        0.167430    0.503581    0.594768     0.005394
PD2978   PD        0.202605    0.467856    0.592500     0.005394
PD2979   PD        0.200156    0.501156    0.628559     0.005394
AU2980   AU        0.234357    0.467435    0.626450     0.007504
AU2981   AU        0.236438    0.503177    0.593546     0.007504
PD2982   PD        0.267880    0.469769    0.592238     0.005394
PD2983   PD        0.268877    0.503436    0.629057     0.005394
PD2984   PD        0.302469    0.469522    0.627653     0.005394
PD2985   PD        0.303444    0.505043    0.593735     0.005394
PD2986   PD        0.333547    0.467167    0.592618     0.005394
AU2987   AU        0.335788    0.503818    0.624743     0.007504
PD2988   PD        0.366899    0.465809    0.624315     0.005394
AU2989   AU        0.369604    0.503468    0.591174     0.007504
PD2990   PD        0.403240    0.469145    0.591282     0.005394
PD2991   PD        0.400013    0.501067    0.626598     0.005394
PD2992   PD        0.434559    0.467467    0.626792     0.005394
AU2993   AU        0.436129    0.503520    0.592798     0.007504
AU2994   AU        0.465332    0.466829    0.593663     0.007504
PD2995   PD        0.467534    0.502302    0.626049     0.005394
AU2996   AU        0.499034    0.465163    0.623052     0.007504
PD2997   PD        0.499082    0.504638    0.594945     0.005394
AU2998   AU        0.532648    0.467663    0.591242     0.007504
AU2999   AU        0.533593    0.502186    0.624861     0.007504
AU3000   AU        0.568924    0.468507    0.626402     0.007504
PD3001   PD        0.568442    0.501727    0.590682     0.005394
PD3002   PD        0.602247    0.469151    0.590333     0.005394
AU3003   AU        0.600403    0.503245    0.625541     0.007504
PD3004   PD        0.633587    0.467694    0.626450     0.005394
AU3005   AU        0.632032    0.506570    0.593201     0.007504
PD3006   PD        0.666797    0.471584    0.593937     0.005394
PD3007   PD        0.667015    0.499928    0.627966     0.005394
AU3008   AU        0.700898    0.466888    0.624221     0.007504
AU3009   AU        0.699819    0.503520    0.591014     0.007504
PD3010   PD        0.731652    0.466241    0.592254     0.005394
AU3011   AU        0.734096    0.503342    0.624350     0.007504
AU3012   AU        0.766111    0.465946    0.627091     0.007504
PD3013   PD        0.766758    0.501700    0.594385     0.005394
AU3014   AU        0.798725    0.469630    0.592134     0.007504
PD3015   PD        0.798875    0.505177    0.626026     0.005394
PD3016   PD        0.830016    0.469629    0.624625     0.005394
PD3017   PD        0.832259    0.504182    0.594398     0.005394
AU3018   AU        0.103233    0.539439    0.625139     0.007504
AU3019   AU        0.103921    0.573984    0.592591     0.007504
AU3020   AU        0.136449    0.540041    0.593855     0.007504
PD3021   PD        0.137835    0.577424    0.627843     0.005394
AU3022   AU        0.167594    0.540031    0.628264     0.007504
AU3023   AU        0.168810    0.574537    0.594594     0.007504
AU3024   AU        0.202101    0.537211    0.595139     0.007504
AU3025   AU        0.201691    0.574767    0.626833     0.007504
AU3026   AU        0.235704    0.537380    0.627074     0.007504
PD3027   PD        0.232587    0.575451    0.593740     0.005394
PD3028   PD        0.267410    0.538818    0.594664     0.005394
PD3029   PD        0.268052    0.572776    0.625546     0.005394
AU3030   AU        0.300194    0.540282    0.627719     0.007504
AU3031   AU        0.303125    0.574085    0.593495     0.007504
AU3032   AU        0.336119    0.540352    0.593845     0.007504
PD3033   PD        0.334932    0.572147    0.627297     0.005394
AU3034   AU        0.371143    0.538158    0.627022     0.007504
PD3035   PD        0.369478    0.572916    0.593280     0.005394
AU3036   AU        0.403254    0.539503    0.593985     0.007504
AU3037   AU        0.402771    0.574329    0.626633     0.007504
AU3038   AU        0.435273    0.538335    0.628663     0.007504
PD3039   PD        0.435654    0.575072    0.591736     0.005394
PD3040   PD        0.468309    0.539184    0.593162     0.005394
AU3041   AU        0.466260    0.573944    0.626043     0.007504
PD3042   PD        0.500336    0.539036    0.625416     0.005394
PD3043   PD        0.498527    0.575429    0.592205     0.005394
PD3044   PD        0.535132    0.535995    0.593940     0.005394
AU3045   AU        0.533516    0.574511    0.625873     0.007504
AU3046   AU        0.566903    0.540700    0.625944     0.007504
AU3047   AU        0.568675    0.575481    0.592185     0.007504
AU3048   AU        0.600760    0.539957    0.592291     0.007504
PD3049   PD        0.597060    0.574237    0.627813     0.005394
AU3050   AU        0.633139    0.539491    0.627023     0.007504
PD3051   PD        0.636048    0.573698    0.592994     0.005394
PD3052   PD        0.666334    0.534750    0.595427     0.005394
AU3053   AU        0.668854    0.573049    0.626535     0.007504
AU3054   AU        0.700639    0.539081    0.628088     0.007504
PD3055   PD        0.699455    0.572709    0.594405     0.005394
AU3056   AU        0.732742    0.539944    0.592026     0.007504
PD3057   PD        0.733249    0.574033    0.629047     0.005394
AU3058   AU        0.763754    0.540455    0.625634     0.007504
AU3059   AU        0.765737    0.574835    0.593400     0.007504
AU3060   AU        0.797967    0.537494    0.593035     0.007504
AU3061   AU        0.799016    0.574636    0.627017     0.007504
PD3062   PD        0.867551    0.506972    0.623622     0.005394
PD3063   PD        0.830315    0.572344    0.591126     0.005394
PD3064   PD        0.138391    0.610361    0.593656     0.005394
PD3065   PD        0.136115    0.640851    0.629331     0.005394
AU3066   AU        0.172005    0.608956    0.626182     0.007504
AU3067   AU        0.168366    0.647658    0.593477     0.007504
PD3068   PD        0.202063    0.609094    0.590963     0.005394
AU3069   AU        0.202781    0.646117    0.624669     0.007504
AU3070   AU        0.234703    0.608916    0.627041     0.007504
AU3071   AU        0.235521    0.645246    0.593175     0.007504
PD3072   PD        0.268602    0.610784    0.594544     0.005394
PD3073   PD        0.265388    0.643121    0.625700     0.005394
PD3074   PD        0.302850    0.608604    0.629506     0.005394
AU3075   AU        0.302027    0.646459    0.591955     0.007504
AU3076   AU        0.334147    0.607959    0.593990     0.007504
PD3077   PD        0.334619    0.647228    0.622646     0.005394
AU3078   AU        0.367567    0.608872    0.626343     0.007504
PD3079   PD        0.368369    0.644351    0.593137     0.005394
PD3080   PD        0.402190    0.607200    0.594878     0.005394
AU3081   AU        0.401266    0.644743    0.626383     0.007504
AU3082   AU        0.434806    0.610598    0.627225     0.007504
PD3083   PD        0.432544    0.643617    0.593030     0.005394
AU3084   AU        0.467016    0.612233    0.593221     0.007504
PD3085   PD        0.468438    0.647176    0.627080     0.005394
PD3086   PD        0.499924    0.608663    0.626738     0.005394
PD3087   PD        0.502260    0.645856    0.596768     0.005394
AU3088   AU        0.533398    0.609243    0.594088     0.007504
PD3089   PD        0.534253    0.646404    0.627723     0.005394
AU3090   AU        0.567544    0.611895    0.625801     0.007504
AU3091   AU        0.566518    0.645286    0.593026     0.007504
PD3092   PD        0.600085    0.610045    0.593399     0.005394
PD3093   PD        0.603487    0.646036    0.626879     0.005394
PD3094   PD        0.632281    0.609294    0.625048     0.005394
PD3095   PD        0.635855    0.644800    0.594318     0.005394
PD3096   PD        0.666906    0.612001    0.594514     0.005394
AU3097   AU        0.666260    0.646268    0.628083     0.007504
PD3098   PD        0.702257    0.612828    0.626138     0.005394
AU3099   AU        0.701430    0.642663    0.594221     0.007504
AU3100   AU        0.732883    0.609145    0.594179     0.007504
PD3101   PD        0.733285    0.644596    0.626962     0.005394
AU3102   AU        0.766872    0.608274    0.627870     0.007504
AU3103   AU        0.765958    0.644507    0.593328     0.007504
AU3104   AU        0.799184    0.609664    0.589939     0.007504
PD3105   PD        0.879472    0.622368    0.580441     0.005394
PD3106   PD        0.172498    0.680679    0.626275     0.005394
PD3107   PD        0.167182    0.718080    0.590834     0.005394
PD3108   PD        0.203381    0.683418    0.595010     0.005394
PD3109   PD        0.202840    0.715316    0.622540     0.005394
AU3110   AU        0.234918    0.678627    0.625814     0.007504
AU3111   AU        0.236209    0.717040    0.593574     0.007504
PD3112   PD        0.269800    0.681818    0.592630     0.005394
PD3113   PD        0.269501    0.713793    0.626392     0.005394
PD3114   PD        0.301845    0.680236    0.625866     0.005394
PD3115   PD        0.299479    0.717677    0.594370     0.005394
AU3116   AU        0.334361    0.683782    0.593468     0.007504
AU3117   AU        0.333985    0.714688    0.627955     0.007504
AU3118   AU        0.366630    0.680578    0.627735     0.007504
PD3119   PD        0.367816    0.716971    0.595166     0.005394
AU3120   AU        0.402630    0.681818    0.595431     0.007504
PD3121   PD        0.403044    0.714911    0.627725     0.005394
AU3122   AU        0.433060    0.679974    0.627796     0.007504
PD3123   PD        0.434917    0.718389    0.595045     0.005394
AU3124   AU        0.468217    0.679518    0.594175     0.007504
PD3125   PD        0.468913    0.715953    0.625174     0.005394
PD3126   PD        0.501446    0.682196    0.625645     0.005394
AU3127   AU        0.499924    0.716874    0.592776     0.007504
PD3128   PD        0.533070    0.684050    0.593095     0.005394
AU3129   AU        0.534934    0.716753    0.627398     0.007504
AU3130   AU        0.566609    0.681974    0.625871     0.007504
AU3131   AU        0.568197    0.717361    0.594184     0.007504
AU3132   AU        0.602232    0.680636    0.596523     0.007504
PD3133   PD        0.602839    0.716453    0.625882     0.005394
PD3134   PD        0.633759    0.679460    0.627225     0.005394
PD3135   PD        0.634665    0.714851    0.593042     0.005394
PD3136   PD        0.667599    0.679235    0.593185     0.005394
AU3137   AU        0.667689    0.714659    0.625815     0.007504
AU3138   AU        0.700413    0.677753    0.627850     0.007504
AU3139   AU        0.701800    0.714961    0.594530     0.007504
AU3140   AU        0.734359    0.679883    0.592765     0.007504
PD3141   PD        0.737634    0.713457    0.625473     0.005394
PD3142   PD        0.766113    0.675468    0.628046     0.005394
PD3143   PD        0.772869    0.717180    0.588306     0.005394
AU3144   AU        0.204133    0.754343    0.594847     0.007504
AU3145   AU        0.235515    0.752878    0.627295     0.007504
PD3146   PD        0.245508    0.875656    0.609189     0.005394
PD3147   PD        0.268247    0.752396    0.594219     0.005394
PD3148   PD        0.268051    0.788999    0.624825     0.005394
PD3149   PD        0.298628    0.753259    0.626492     0.005394
PD3150   PD        0.303135    0.786355    0.595420     0.005394
AU3151   AU        0.334272    0.750071    0.592534     0.007504
AU3152   AU        0.334668    0.785585    0.627587     0.007504
AU3153   AU        0.367459    0.753186    0.626317     0.007504
PD3154   PD        0.368616    0.786615    0.593455     0.005394
AU3155   AU        0.400645    0.751500    0.594434     0.007504
AU3156   AU        0.401345    0.788089    0.626484     0.007504
PD3157   PD        0.433796    0.753185    0.626736     0.005394
AU3158   AU        0.433192    0.788209    0.593394     0.007504
AU3159   AU        0.465937    0.752610    0.593803     0.007504
PD3160   PD        0.467389    0.785343    0.624353     0.005394
AU3161   AU        0.502098    0.751531    0.625426     0.007504
PD3162   PD        0.501418    0.788318    0.595850     0.005394
AU3163   AU        0.532073    0.752852    0.591676     0.007504
AU3164   AU        0.535494    0.786427    0.625784     0.007504
PD3165   PD        0.567685    0.751260    0.625989     0.005394
AU3166   AU        0.567176    0.785902    0.592456     0.007504
PD3167   PD        0.601397    0.752187    0.591136     0.005394
PD3168   PD        0.600760    0.786151    0.625078     0.005394
AU3169   AU        0.634369    0.751862    0.627129     0.007504
PD3170   PD        0.632318    0.786530    0.591200     0.005394
AU3171   AU        0.666941    0.749159    0.594594     0.007504
AU3172   AU        0.665701    0.789634    0.623836     0.007504
PD3173   PD        0.698456    0.753827    0.625674     0.005394
AU3174   AU        0.699744    0.820737    0.559155     0.007504
PD3175   PD        0.774818    0.738705    0.644957     0.005394
PD3176   PD        0.303368    0.823375    0.628384     0.005394
AU3177   AU        0.335609    0.821446    0.595461     0.007504
AU3178   AU        0.369331    0.821134    0.626736     0.007504
AU3179   AU        0.369339    0.856090    0.594669     0.007504
AU3180   AU        0.401321    0.823403    0.592712     0.007504
PD3181   PD        0.398595    0.857591    0.629681     0.005394
AU3182   AU        0.433034    0.823124    0.627910     0.007504
PD3183   PD        0.470845    0.894737    0.592991     0.005394
PD3184   PD        0.465310    0.826362    0.596906     0.005394
PD3185   PD        0.466782    0.858934    0.628603     0.005394
PD3186   PD        0.499434    0.819994    0.625010     0.005394
AU3187   AU        0.501151    0.858572    0.594842     0.007504
PD3188   PD        0.532961    0.822302    0.592716     0.005394
PD3189   PD        0.528458    0.859359    0.628854     0.005394
AU3190   AU        0.567003    0.822236    0.627029     0.007504
PD3191   PD        0.559330    0.864594    0.591544     0.005394
PD3192   PD        0.599967    0.818761    0.593494     0.005394
PD3193   PD        0.599363    0.822697    0.656126     0.005394
AU3194   AU        0.301257    0.146454    0.660003     0.007504
AU3195   AU        0.335405    0.146894    0.694376     0.007504
PD3196   PD        0.368125    0.147159    0.656493     0.005394
PD3197   PD        0.400429    0.114079    0.660361     0.005394
PD3198   PD        0.397453    0.143627    0.693688     0.005394
PD3199   PD        0.368062    0.075962    0.728894     0.005394
AU3200   AU        0.433994    0.147232    0.660341     0.007504
PD3201   PD        0.431958    0.113594    0.690773     0.005394
AU3202   AU        0.466849    0.146353    0.691343     0.007504
AU3203   AU        0.500897    0.112495    0.691890     0.007504
AU3204   AU        0.499909    0.146552    0.660292     0.007504
PD3205   PD        0.566208    0.110705    0.687778     0.005394
PD3206   PD        0.532279    0.146887    0.690845     0.005394
PD3207   PD        0.569669    0.145656    0.659094     0.005394
PD3208   PD        0.599880    0.144756    0.693416     0.005394
PD3209   PD        0.635874    0.146657    0.657909     0.005394
PD3210   PD        0.237476    0.219134    0.661563     0.005394
AU3211   AU        0.268324    0.181807    0.661058     0.007504
PD3212   PD        0.267312    0.218211    0.693089     0.005394
AU3213   AU        0.300264    0.181361    0.693079     0.007504
AU3214   AU        0.300262    0.216720    0.659016     0.007504
AU3215   AU        0.333500    0.181534    0.659893     0.007504
PD3216   PD        0.332531    0.217936    0.694404     0.005394
PD3217   PD        0.369107    0.181150    0.691472     0.005394
PD3218   PD        0.366226    0.214770    0.658800     0.005394
AU3219   AU        0.402689    0.183226    0.659856     0.007504
AU3220   AU        0.402336    0.217312    0.691227     0.007504
AU3221   AU        0.435265    0.181546    0.692566     0.007504
AU3222   AU        0.435246    0.216728    0.660240     0.007504
AU3223   AU        0.468300    0.182540    0.658683     0.007504
PD3224   PD        0.466485    0.218599    0.691679     0.005394
AU3225   AU        0.500282    0.184129    0.693170     0.007504
AU3226   AU        0.500106    0.217654    0.660277     0.007504
PD3227   PD        0.531015    0.182245    0.660913     0.005394
AU3228   AU        0.536686    0.219221    0.689289     0.007504
AU3229   AU        0.566741    0.182614    0.692041     0.007504
PD3230   PD        0.566803    0.216887    0.658650     0.005394
AU3231   AU        0.599597    0.181994    0.656569     0.007504
AU3232   AU        0.600145    0.217764    0.693206     0.007504
AU3233   AU        0.631747    0.182161    0.690244     0.007504
AU3234   AU        0.631109    0.218284    0.657467     0.007504
AU3235   AU        0.665762    0.183987    0.658698     0.007504
AU3236   AU        0.664631    0.219850    0.689630     0.007504
PD3237   PD        0.696284    0.219116    0.655862     0.005394
PD3238   PD        0.167674    0.287561    0.658120     0.005394
AU3239   AU        0.201687    0.254228    0.662833     0.007504
AU3240   AU        0.201306    0.290798    0.693899     0.007504
PD3241   PD        0.234696    0.255487    0.696248     0.005394
PD3242   PD        0.232554    0.290017    0.660528     0.005394
PD3243   PD        0.264069    0.253667    0.658607     0.005394
AU3244   AU        0.268258    0.290457    0.692178     0.007504
PD3245   PD        0.300487    0.252686    0.693002     0.005394
PD3246   PD        0.298489    0.289669    0.659740     0.005394
PD3247   PD        0.333403    0.251892    0.657557     0.005394
PD3248   PD        0.335072    0.286981    0.692960     0.005394
PD3249   PD        0.369831    0.251233    0.692568     0.005394
AU3250   AU        0.368914    0.287165    0.658472     0.007504
AU3251   AU        0.401598    0.251741    0.659098     0.007504
PD3252   PD        0.400502    0.287550    0.694583     0.005394
AU3253   AU        0.432453    0.252527    0.694711     0.007504
PD3254   PD        0.431071    0.288941    0.658974     0.005394
AU3255   AU        0.466583    0.253667    0.660291     0.007504
AU3256   AU        0.463983    0.289808    0.692368     0.007504
AU3257   AU        0.500859    0.253887    0.692151     0.007504
AU3258   AU        0.498701    0.289597    0.659666     0.007504
PD3259   PD        0.530225    0.252619    0.658158     0.005394
AU3260   AU        0.534443    0.290297    0.690878     0.007504
AU3261   AU        0.565555    0.254630    0.690415     0.007504
AU3262   AU        0.567264    0.289079    0.658847     0.007504
PD3263   PD        0.601579    0.254306    0.660961     0.005394
PD3264   PD        0.599931    0.289875    0.691421     0.005394
PD3265   PD        0.633372    0.254140    0.691867     0.005394
PD3266   PD        0.631978    0.288770    0.658933     0.005394
PD3267   PD        0.665875    0.253521    0.658119     0.005394
PD3268   PD        0.665827    0.285924    0.692639     0.005394
AU3269   AU        0.698476    0.252190    0.691788     0.007504
PD3270   PD        0.699237    0.290925    0.659254     0.005394
AU3271   AU        0.731535    0.255390    0.657673     0.007504
PD3272   PD        0.734245    0.291638    0.692772     0.005394
PD3273   PD        0.771986    0.291915    0.657864     0.005394
PD3274   PD        0.168098    0.326585    0.692859     0.005394
AU3275   AU        0.167533    0.361898    0.661598     0.007504
AU3276   AU        0.201643    0.328058    0.660598     0.007504
AU3277   AU        0.202018    0.362636    0.694068     0.007504
PD3278   PD        0.232818    0.325609    0.692724     0.005394
AU3279   AU        0.235340    0.362209    0.660594     0.007504
PD3280   PD        0.266991    0.325328    0.658473     0.005394
PD3281   PD        0.267272    0.362084    0.695924     0.005394
PD3282   PD        0.303211    0.325020    0.692706     0.005394
PD3283   PD        0.299172    0.359127    0.661436     0.005394
PD3284   PD        0.332482    0.325582    0.660321     0.005394
PD3285   PD        0.335097    0.359540    0.694037     0.005394
PD3286   PD        0.366699    0.322400    0.693282     0.005394
AU3287   AU        0.368404    0.362018    0.660615     0.007504
PD3288   PD        0.399348    0.325210    0.660407     0.005394
AU3289   AU        0.399501    0.361087    0.693116     0.007504
AU3290   AU        0.432091    0.326076    0.692424     0.007504
AU3291   AU        0.433439    0.362092    0.659424     0.007504
AU3292   AU        0.466797    0.325386    0.659590     0.007504
PD3293   PD        0.465556    0.360260    0.692374     0.005394
PD3294   PD        0.499598    0.325588    0.694243     0.005394
AU3295   AU        0.501837    0.361326    0.659689     0.007504
PD3296   PD        0.533271    0.325244    0.660116     0.005394
PD3297   PD        0.536034    0.361121    0.690280     0.005394
AU3298   AU        0.566983    0.325915    0.690987     0.007504
PD3299   PD        0.567900    0.360845    0.659040     0.005394
AU3300   AU        0.600950    0.326037    0.658210     0.007504
PD3301   PD        0.601619    0.360332    0.692160     0.005394
PD3302   PD        0.634407    0.326508    0.692281     0.005394
AU3303   AU        0.633346    0.363142    0.660375     0.007504
PD3304   PD        0.665648    0.323023    0.662703     0.005394
AU3305   AU        0.665176    0.364257    0.693199     0.007504
PD3306   PD        0.701530    0.321283    0.692441     0.005394
PD3307   PD        0.697457    0.363415    0.659433     0.005394
PD3308   PD        0.736055    0.320482    0.656098     0.005394
AU3309   AU        0.730177    0.362000    0.693132     0.007504
PD3310   PD        0.776250    0.319401    0.685299     0.005394
PD3311   PD        0.760450    0.360534    0.657910     0.005394
PD3312   PD        0.137878    0.398984    0.657482     0.005394
PD3313   PD        0.135211    0.433425    0.690856     0.005394
AU3314   AU        0.170025    0.399771    0.694143     0.007504
AU3315   AU        0.168894    0.434360    0.660383     0.007504
AU3316   AU        0.201992    0.398661    0.662178     0.007504
AU3317   AU        0.202172    0.434890    0.693400     0.007504
AU3318   AU        0.234993    0.398354    0.695009     0.007504
AU3319   AU        0.234564    0.432984    0.661482     0.007504
AU3320   AU        0.267739    0.398964    0.661261     0.007504
AU3321   AU        0.267186    0.434025    0.694269     0.007504
PD3322   PD        0.304432    0.398878    0.691732     0.005394
PD3323   PD        0.302186    0.434861    0.662069     0.005394
AU3324   AU        0.335167    0.396358    0.661712     0.007504
PD3325   PD        0.334720    0.436193    0.692805     0.005394
PD3326   PD        0.367644    0.398465    0.692714     0.005394
AU3327   AU        0.366694    0.432020    0.660278     0.007504
AU3328   AU        0.399924    0.396562    0.660276     0.007504
AU3329   AU        0.400842    0.430322    0.693577     0.007504
AU3330   AU        0.432939    0.394718    0.693780     0.007504
AU3331   AU        0.433865    0.430510    0.660638     0.007504
AU3332   AU        0.466630    0.394948    0.659413     0.007504
PD3333   PD        0.466289    0.430556    0.691617     0.005394
AU3334   AU        0.501405    0.394845    0.693192     0.007504
AU3335   AU        0.500384    0.431532    0.658495     0.007504
PD3336   PD        0.535881    0.396222    0.660812     0.005394
PD3337   PD        0.531431    0.431224    0.692499     0.005394
PD3338   PD        0.569631    0.394308    0.693229     0.005394
PD3339   PD        0.564903    0.431896    0.660009     0.005394
AU3340   AU        0.601268    0.397342    0.658694     0.007504
PD3341   PD        0.599695    0.435222    0.693930     0.005394
AU3342   AU        0.631936    0.399082    0.692317     0.007504
AU3343   AU        0.634353    0.432864    0.657348     0.007504
PD3344   PD        0.664436    0.399162    0.659325     0.005394
PD3345   PD        0.666341    0.434569    0.694246     0.005394
AU3346   AU        0.698741    0.399027    0.692861     0.007504
AU3347   AU        0.701085    0.435034    0.659924     0.007504
PD3348   PD        0.732832    0.396553    0.662582     0.005394
PD3349   PD        0.732537    0.431528    0.693228     0.005394
PD3350   PD        0.763588    0.396533    0.695313     0.005394
PD3351   PD        0.764300    0.432782    0.659820     0.005394
PD3352   PD        0.799094    0.396650    0.658353     0.005394
PD3353   PD        0.796835    0.428708    0.691985     0.005394
PD3354   PD        0.135707    0.467726    0.659871     0.005394
PD3355   PD        0.134859    0.500881    0.694038     0.005394
AU3356   AU        0.168316    0.466729    0.694133     0.007504
AU3357   AU        0.167442    0.503389    0.660964     0.007504
AU3358   AU        0.202602    0.469427    0.659940     0.007504
AU3359   AU        0.200820    0.503698    0.692557     0.007504
AU3360   AU        0.233929    0.468864    0.692792     0.007504
AU3361   AU        0.233482    0.503345    0.658101     0.007504
AU3362   AU        0.267595    0.469229    0.660839     0.007504
AU3363   AU        0.267189    0.505585    0.690531     0.007504
AU3364   AU        0.302012    0.467883    0.693044     0.007504
AU3365   AU        0.301750    0.504705    0.660826     0.007504
AU3366   AU        0.334652    0.467102    0.658142     0.007504
AU3367   AU        0.334018    0.503147    0.691208     0.007504
AU3368   AU        0.367797    0.466877    0.691866     0.007504
AU3369   AU        0.368974    0.502688    0.660320     0.007504
AU3370   AU        0.401065    0.467191    0.660695     0.007504
AU3371   AU        0.401487    0.504150    0.694185     0.007504
AU3372   AU        0.433499    0.465565    0.694448     0.007504
AU3373   AU        0.431649    0.501764    0.659521     0.007504
PD3374   PD        0.466530    0.468157    0.659204     0.005394
AU3375   AU        0.466933    0.504316    0.694446     0.007504
PD3376   PD        0.500761    0.469197    0.690706     0.005394
PD3377   PD        0.500864    0.502539    0.658491     0.005394
AU3378   AU        0.533577    0.468067    0.658881     0.007504
AU3379   AU        0.533455    0.504014    0.693334     0.007504
PD3380   PD        0.563870    0.467499    0.692198     0.005394
AU3381   AU        0.566243    0.503578    0.658017     0.007504
AU3382   AU        0.601386    0.467839    0.659607     0.007504
AU3383   AU        0.599148    0.501624    0.691998     0.007504
PD3384   PD        0.633281    0.468779    0.692204     0.005394
PD3385   PD        0.632776    0.502823    0.659412     0.005394
PD3386   PD        0.668911    0.467524    0.661482     0.005394
PD3387   PD        0.666153    0.504143    0.693388     0.005394
PD3388   PD        0.700861    0.469443    0.690672     0.005394
PD3389   PD        0.700580    0.502690    0.660325     0.005394
PD3390   PD        0.733584    0.470401    0.659299     0.005394
AU3391   AU        0.733504    0.503891    0.696894     0.007504
PD3392   PD        0.763708    0.465940    0.694988     0.005394
AU3393   AU        0.765070    0.503072    0.660978     0.007504
PD3394   PD        0.797477    0.465465    0.658497     0.005394
PD3395   PD        0.801251    0.505113    0.691654     0.005394
AU3396   AU        0.135875    0.537689    0.659823     0.007504
AU3397   AU        0.167817    0.539796    0.693406     0.007504
AU3398   AU        0.169456    0.576851    0.660182     0.007504
AU3399   AU        0.199896    0.537159    0.659153     0.007504
AU3400   AU        0.200154    0.573243    0.692277     0.007504
AU3401   AU        0.234945    0.538699    0.692224     0.007504
AU3402   AU        0.234388    0.573255    0.659218     0.007504
PD3403   PD        0.268340    0.539429    0.659444     0.005394
AU3404   AU        0.266339    0.575563    0.692176     0.007504
AU3405   AU        0.300224    0.538166    0.692788     0.007504
PD3406   PD        0.300975    0.574506    0.659456     0.005394
AU3407   AU        0.335343    0.539999    0.659556     0.007504
AU3408   AU        0.335102    0.573599    0.691051     0.007504
PD3409   PD        0.369719    0.539155    0.691928     0.005394
AU3410   AU        0.369350    0.574511    0.659840     0.007504
AU3411   AU        0.402648    0.538369    0.661247     0.007504
AU3412   AU        0.401781    0.574525    0.693366     0.007504
AU3413   AU        0.434454    0.538611    0.693138     0.007504
AU3414   AU        0.435485    0.573531    0.660430     0.007504
PD3415   PD        0.466147    0.538558    0.661037     0.005394
PD3416   PD        0.466142    0.572034    0.692551     0.005394
AU3417   AU        0.498610    0.538989    0.693312     0.007504
AU3418   AU        0.500501    0.573770    0.659742     0.007504
PD3419   PD        0.532956    0.539479    0.659589     0.005394
AU3420   AU        0.532916    0.574184    0.694234     0.007504
AU3421   AU        0.565441    0.539002    0.690587     0.007504
AU3422   AU        0.566224    0.573561    0.660452     0.007504
PD3423   PD        0.600911    0.538746    0.662126     0.005394
PD3424   PD        0.602090    0.574906    0.692081     0.005394
AU3425   AU        0.634336    0.538927    0.694212     0.007504
AU3426   AU        0.632856    0.573732    0.659581     0.007504
PD3427   PD        0.663795    0.538129    0.660088     0.005394
AU3428   AU        0.665341    0.573816    0.691262     0.007504
AU3429   AU        0.701250    0.537919    0.692754     0.007504
AU3430   AU        0.699281    0.574159    0.662035     0.007504
PD3431   PD        0.735356    0.538850    0.660757     0.005394
AU3432   AU        0.731405    0.576621    0.693046     0.007504
PD3433   PD        0.764738    0.541240    0.693697     0.005394
AU3434   AU        0.765995    0.574170    0.662072     0.007504
PD3435   PD        0.797426    0.538726    0.659249     0.005394
PD3436   PD        0.168693    0.608402    0.691499     0.005394
PD3437   PD        0.169157    0.642965    0.659394     0.005394
AU3438   AU        0.201722    0.610675    0.662011     0.007504
AU3439   AU        0.199835    0.646891    0.693336     0.007504
PD3440   PD        0.235782    0.609137    0.694410     0.005394
AU3441   AU        0.232828    0.644994    0.660127     0.007504
PD3442   PD        0.266591    0.609139    0.659881     0.005394
AU3443   AU        0.269706    0.642637    0.693200     0.007504
AU3444   AU        0.302392    0.608941    0.691703     0.007504
AU3445   AU        0.302955    0.645302    0.658595     0.007504
AU3446   AU        0.334906    0.609400    0.658221     0.007504
PD3447   PD        0.334189    0.643782    0.692141     0.005394
PD3448   PD        0.369287    0.613279    0.690831     0.005394
PD3449   PD        0.369251    0.643914    0.659489     0.005394
AU3450   AU        0.403261    0.609460    0.658591     0.007504
PD3451   PD        0.400689    0.644827    0.692589     0.005394
AU3452   AU        0.433696    0.608549    0.693252     0.007504
AU3453   AU        0.433699    0.645667    0.660569     0.007504
AU3454   AU        0.466984    0.607693    0.659903     0.007504
AU3455   AU        0.466569    0.644036    0.692642     0.007504
AU3456   AU        0.499795    0.609439    0.692433     0.007504
AU3457   AU        0.501753    0.646389    0.658041     0.007504
PD3458   PD        0.534423    0.607863    0.658688     0.005394
PD3459   PD        0.532137    0.647365    0.692698     0.005394
PD3460   PD        0.565105    0.609400    0.692115     0.005394
PD3461   PD        0.567705    0.646286    0.659402     0.005394
AU3462   AU        0.600965    0.611049    0.660244     0.007504
PD3463   PD        0.599402    0.644515    0.693974     0.005394
AU3464   AU        0.632169    0.611695    0.694058     0.007504
PD3465   PD        0.636760    0.644769    0.661410     0.005394
AU3466   AU        0.667539    0.608930    0.661903     0.007504
AU3467   AU        0.667225    0.644876    0.693419     0.007504
AU3468   AU        0.698925    0.610161    0.693905     0.007504
AU3469   AU        0.698414    0.643201    0.659635     0.007504
AU3470   AU        0.732284    0.610820    0.659269     0.007504
AU3471   AU        0.732499    0.644723    0.691922     0.007504
AU3472   AU        0.765027    0.608385    0.695254     0.007504
AU3473   AU        0.768788    0.644586    0.663782     0.007504
AU3474   AU        0.200691    0.678916    0.658618     0.007504
AU3475   AU        0.235224    0.678944    0.692216     0.007504
PD3476   PD        0.237027    0.715335    0.656705     0.005394
PD3477   PD        0.269464    0.678208    0.660831     0.005394
PD3478   PD        0.268130    0.713099    0.692767     0.005394
AU3479   AU        0.302277    0.680828    0.693663     0.007504
AU3480   AU        0.301616    0.716502    0.661030     0.007504
AU3481   AU        0.335132    0.678849    0.659885     0.007504
AU3482   AU        0.335379    0.716250    0.695203     0.007504
AU3483   AU        0.367526    0.681432    0.693647     0.007504
PD3484   PD        0.369829    0.715649    0.661234     0.005394
AU3485   AU        0.400171    0.680665    0.659388     0.007504
PD3486   PD        0.400769    0.718474    0.692624     0.005394
PD3487   PD        0.431854    0.682123    0.694212     0.005394
AU3488   AU        0.434370    0.715186    0.658735     0.007504
AU3489   AU        0.467785    0.680186    0.658628     0.007504
AU3490   AU        0.467265    0.713691    0.692230     0.007504
PD3491   PD        0.500098    0.682609    0.694649     0.005394
AU3492   AU        0.501270    0.717017    0.659102     0.007504
AU3493   AU        0.534076    0.680543    0.658599     0.007504
PD3494   PD        0.535442    0.716198    0.691574     0.005394
PD3495   PD        0.566403    0.680663    0.692520     0.005394
AU3496   AU        0.568109    0.715485    0.660069     0.007504
AU3497   AU        0.601437    0.680219    0.660443     0.007504
PD3498   PD        0.598728    0.714721    0.693389     0.005394
PD3499   PD        0.632750    0.680826    0.692734     0.005394
PD3500   PD        0.635290    0.717294    0.659035     0.005394
AU3501   AU        0.668397    0.681700    0.660594     0.007504
PD3502   PD        0.667363    0.714179    0.693376     0.005394
PD3503   PD        0.700237    0.679538    0.692546     0.005394
AU3504   AU        0.702415    0.714235    0.658507     0.007504
PD3505   PD        0.733824    0.679681    0.661320     0.005394
PD3506   PD        0.268428    0.752000    0.663482     0.005394
PD3507   PD        0.301021    0.750479    0.694982     0.005394
PD3508   PD        0.299209    0.788277    0.658165     0.005394
AU3509   AU        0.336013    0.753372    0.660336     0.007504
PD3510   PD        0.337764    0.789044    0.692130     0.005394
AU3511   AU        0.367930    0.752080    0.692659     0.007504
AU3512   AU        0.370046    0.787614    0.660087     0.007504
PD3513   PD        0.402042    0.750213    0.659142     0.005394
PD3514   PD        0.401239    0.785548    0.694380     0.005394
AU3515   AU        0.435370    0.752257    0.690918     0.007504
AU3516   AU        0.432228    0.788740    0.659109     0.007504
AU3517   AU        0.467657    0.751506    0.658601     0.007504
PD3518   PD        0.469614    0.789034    0.693671     0.005394
PD3519   PD        0.499490    0.754567    0.693293     0.005394
PD3520   PD        0.500149    0.786794    0.657493     0.005394
PD3521   PD        0.533239    0.754424    0.658223     0.005394
AU3522   AU        0.533742    0.786314    0.692014     0.007504
AU3523   AU        0.569947    0.752340    0.693775     0.007504
PD3524   PD        0.567326    0.785632    0.660993     0.005394
PD3525   PD        0.601941    0.752224    0.657627     0.005394
PD3526   PD        0.602998    0.784989    0.694441     0.005394
PD3527   PD        0.634643    0.751335    0.692185     0.005394
PD3528   PD        0.635105    0.787733    0.658579     0.005394
PD3529   PD        0.667457    0.749410    0.661030     0.005394
PD3530   PD        0.410163    0.869115    0.706701     0.005394
PD3531   PD        0.431547    0.819534    0.693351     0.005394
AU3532   AU        0.467441    0.820746    0.658710     0.007504
PD3533   PD        0.501390    0.821667    0.692321     0.005394
PD3534   PD        0.533312    0.825878    0.657894     0.005394
PD3535   PD        0.435024    0.148366    0.727751     0.005394
PD3536   PD        0.500575    0.146595    0.727081     0.005394
AU3537   AU        0.301732    0.221641    0.727197     0.007504
PD3538   PD        0.302122    0.143311    0.728813     0.005394
AU3539   AU        0.331477    0.220103    0.760362     0.007504
AU3540   AU        0.367276    0.219048    0.726289     0.007504
PD3541   PD        0.401128    0.183547    0.723443     0.005394
PD3542   PD        0.397386    0.215311    0.759100     0.005394
PD3543   PD        0.430767    0.184654    0.761618     0.005394
AU3544   AU        0.435835    0.216907    0.725894     0.007504
AU3545   AU        0.466916    0.183933    0.726130     0.007504
AU3546   AU        0.469237    0.218936    0.757999     0.007504
PD3547   PD        0.501811    0.185110    0.757094     0.005394
PD3548   PD        0.500602    0.219375    0.725545     0.005394
PD3549   PD        0.531051    0.184019    0.724165     0.005394
AU3550   AU        0.533360    0.219948    0.758084     0.007504
PD3551   PD        0.565514    0.219914    0.724896     0.005394
PD3552   PD        0.598562    0.182385    0.726482     0.005394
PD3553   PD        0.599352    0.217499    0.758094     0.005394
AU3554   AU        0.633630    0.217744    0.724700     0.007504
AU3555   AU        0.234907    0.289931    0.727980     0.007504
AU3556   AU        0.268835    0.252406    0.725333     0.007504
AU3557   AU        0.266431    0.325004    0.789359     0.007504
PD3558   PD        0.299418    0.254309    0.758964     0.005394
PD3559   PD        0.303745    0.288885    0.724160     0.005394
AU3560   AU        0.337147    0.253231    0.727577     0.007504
PD3561   PD        0.333261    0.291123    0.757149     0.005394
PD3562   PD        0.334511    0.253038    0.791830     0.005394
AU3563   AU        0.365655    0.290237    0.725992     0.007504
AU3564   AU        0.400081    0.255064    0.727537     0.007504
PD3565   PD        0.400567    0.289989    0.758952     0.005394
AU3566   AU        0.435504    0.253197    0.757488     0.007504
PD3567   PD        0.433916    0.289503    0.725251     0.005394
PD3568   PD        0.467549    0.253855    0.724247     0.005394
PD3569   PD        0.467096    0.287927    0.756353     0.005394
AU3570   AU        0.499708    0.255616    0.759067     0.007504
PD3571   PD        0.502609    0.287668    0.725649     0.005394
AU3572   AU        0.532899    0.253752    0.726193     0.007504
PD3573   PD        0.534447    0.288726    0.759481     0.005394
PD3574   PD        0.566877    0.254459    0.758948     0.005394
AU3575   AU        0.565194    0.288591    0.725884     0.007504
PD3576   PD        0.602122    0.253044    0.725141     0.005394
PD3577   PD        0.597186    0.288394    0.756288     0.005394
PD3578   PD        0.628597    0.255772    0.758823     0.005394
PD3579   PD        0.633625    0.291826    0.723919     0.005394
PD3580   PD        0.663911    0.254810    0.723709     0.005394
AU3581   AU        0.664370    0.287497    0.756528     0.007504
PD3582   PD        0.726060    0.259787    0.727544     0.005394
AU3583   AU        0.201826    0.325807    0.726836     0.007504
PD3584   PD        0.164827    0.293092    0.791594     0.005394
AU3585   AU        0.233804    0.359077    0.725867     0.007504
AU3586   AU        0.265156    0.325064    0.727114     0.007504
AU3587   AU        0.266765    0.363114    0.759175     0.007504
PD3588   PD        0.300651    0.325193    0.756607     0.005394
PD3589   PD        0.298901    0.362356    0.724016     0.005394
AU3590   AU        0.334452    0.326667    0.726635     0.007504
PD3591   PD        0.333758    0.363296    0.757905     0.005394
AU3592   AU        0.366157    0.324142    0.758955     0.007504
PD3593   PD        0.369278    0.361208    0.728240     0.005394
AU3594   AU        0.399993    0.324021    0.726463     0.007504
AU3595   AU        0.400983    0.360475    0.760083     0.007504
AU3596   AU        0.432960    0.324351    0.759521     0.007504
AU3597   AU        0.432611    0.359544    0.725891     0.007504
AU3598   AU        0.465660    0.324729    0.726519     0.007504
PD3599   PD        0.466076    0.360669    0.759179     0.005394
AU3600   AU        0.500752    0.328002    0.758368     0.007504
PD3601   PD        0.502067    0.358859    0.725421     0.005394
AU3602   AU        0.533538    0.325408    0.724951     0.007504
PD3603   PD        0.532803    0.360863    0.758481     0.005394
AU3604   AU        0.565866    0.325696    0.759228     0.007504
AU3605   AU        0.565131    0.360229    0.725216     0.007504
PD3606   PD        0.598665    0.324826    0.726321     0.005394
PD3607   PD        0.598366    0.361775    0.757816     0.005394
PD3608   PD        0.630814    0.325996    0.757133     0.005394
PD3609   PD        0.632627    0.360689    0.726285     0.005394
PD3610   PD        0.666024    0.324591    0.723933     0.005394
PD3611   PD        0.665329    0.361872    0.758887     0.005394
PD3612   PD        0.718680    0.302662    0.772958     0.005394
PD3613   PD        0.695373    0.362280    0.725616     0.005394
PD3614   PD        0.733047    0.331163    0.725904     0.005394
PD3615   PD        0.169382    0.435622    0.726805     0.005394
AU3616   AU        0.201178    0.400231    0.727634     0.007504
PD3617   PD        0.203365    0.432195    0.760255     0.005394
PD3618   PD        0.235400    0.393831    0.756619     0.005394
AU3619   AU        0.235074    0.434499    0.726056     0.007504
AU3620   AU        0.267381    0.398506    0.725265     0.007504
AU3621   AU        0.268472    0.432794    0.757394     0.007504
PD3622   PD        0.299610    0.398458    0.758269     0.005394
AU3623   AU        0.301443    0.433151    0.725912     0.007504
PD3624   PD        0.333362    0.402005    0.726773     0.005394
AU3625   AU        0.334248    0.434505    0.760003     0.007504
AU3626   AU        0.367435    0.397287    0.758219     0.007504
AU3627   AU        0.367579    0.433858    0.725841     0.007504
AU3628   AU        0.401229    0.396167    0.726181     0.007504
AU3629   AU        0.399284    0.431980    0.758176     0.007504
AU3630   AU        0.431839    0.393324    0.760193     0.007504
AU3631   AU        0.433536    0.431096    0.726640     0.007504
AU3632   AU        0.467502    0.395216    0.724783     0.007504
AU3633   AU        0.468254    0.431444    0.758228     0.007504
PD3634   PD        0.499276    0.393667    0.757824     0.005394
PD3635   PD        0.500076    0.434455    0.723634     0.005394
PD3636   PD        0.531174    0.396109    0.726463     0.005394
AU3637   AU        0.533004    0.429524    0.759704     0.007504
PD3638   PD        0.567260    0.397083    0.761917     0.005394
AU3639   AU        0.565696    0.432442    0.725722     0.007504
AU3640   AU        0.599408    0.396939    0.725793     0.007504
AU3641   AU        0.600417    0.431527    0.760200     0.007504
PD3642   PD        0.630486    0.396343    0.759486     0.005394
AU3643   AU        0.633198    0.435254    0.726463     0.007504
PD3644   PD        0.664976    0.396758    0.724354     0.005394
PD3645   PD        0.664740    0.434715    0.758138     0.005394
AU3646   AU        0.697904    0.398970    0.758783     0.007504
AU3647   AU        0.699240    0.435466    0.726850     0.007504
PD3648   PD        0.731624    0.395624    0.725301     0.005394
PD3649   PD        0.733133    0.433906    0.761826     0.005394
AU3650   AU        0.765971    0.430659    0.726760     0.007504
AU3651   AU        0.168816    0.506411    0.724807     0.007504
PD3652   PD        0.201561    0.467764    0.728485     0.005394
PD3653   PD        0.201544    0.507043    0.761064     0.005394
AU3654   AU        0.235500    0.469066    0.758308     0.007504
AU3655   AU        0.233503    0.504210    0.726998     0.007504
PD3656   PD        0.267361    0.469896    0.725643     0.005394
PD3657   PD        0.268740    0.505293    0.757918     0.005394
AU3658   AU        0.300703    0.469631    0.760706     0.007504
AU3659   AU        0.301585    0.502753    0.726466     0.007504
PD3660   PD        0.332239    0.467848    0.727129     0.005394
AU3661   AU        0.333723    0.503488    0.758919     0.007504
PD3662   PD        0.367435    0.467501    0.761093     0.005394
PD3663   PD        0.367538    0.504920    0.727159     0.005394
AU3664   AU        0.398962    0.469101    0.725368     0.007504
PD3665   PD        0.401069    0.503236    0.759739     0.005394
PD3666   PD        0.433608    0.469036    0.758167     0.005394
AU3667   AU        0.434082    0.503947    0.727708     0.007504
PD3668   PD        0.466243    0.467123    0.725851     0.005394
AU3669   AU        0.468568    0.502869    0.756273     0.007504
AU3670   AU        0.499766    0.467474    0.757541     0.007504
AU3671   AU        0.500968    0.501232    0.724693     0.007504
AU3672   AU        0.533749    0.467549    0.725672     0.007504
PD3673   PD        0.534100    0.504181    0.758206     0.005394
AU3674   AU        0.567016    0.467655    0.759839     0.007504
PD3675   PD        0.568925    0.502719    0.726218     0.005394
PD3676   PD        0.600536    0.467450    0.726217     0.005394
PD3677   PD        0.599414    0.502990    0.760338     0.005394
AU3678   AU        0.631417    0.468069    0.761178     0.007504
PD3679   PD        0.632709    0.503769    0.727640     0.005394
AU3680   AU        0.667154    0.470252    0.727098     0.007504
PD3681   PD        0.664366    0.502077    0.762593     0.005394
PD3682   PD        0.698437    0.469216    0.758951     0.005394
AU3683   AU        0.699296    0.504230    0.725471     0.007504
PD3684   PD        0.732652    0.466500    0.725981     0.005394
PD3685   PD        0.737579    0.502881    0.758723     0.005394
PD3686   PD        0.795339    0.540588    0.728069     0.005394
AU3687   AU        0.202672    0.539796    0.723466     0.007504
PD3688   PD        0.234254    0.539393    0.759438     0.005394
AU3689   AU        0.234701    0.573969    0.725495     0.007504
AU3690   AU        0.268882    0.540940    0.726139     0.007504
AU3691   AU        0.268429    0.573251    0.760117     0.007504
PD3692   PD        0.302037    0.540185    0.758668     0.005394
PD3693   PD        0.300437    0.573908    0.725454     0.005394
PD3694   PD        0.334275    0.538880    0.724836     0.005394
AU3695   AU        0.335818    0.573532    0.758563     0.007504
AU3696   AU        0.366533    0.539943    0.760019     0.007504
PD3697   PD        0.367729    0.575202    0.726429     0.005394
PD3698   PD        0.399111    0.540486    0.727150     0.005394
PD3699   PD        0.402037    0.572828    0.758892     0.005394
AU3700   AU        0.433433    0.538900    0.758769     0.007504
AU3701   AU        0.434937    0.574664    0.727340     0.007504
AU3702   AU        0.467124    0.539901    0.726968     0.007504
PD3703   PD        0.468340    0.575978    0.760537     0.005394
PD3704   PD        0.499310    0.538576    0.759348     0.005394
AU3705   AU        0.501106    0.573463    0.726241     0.007504
AU3706   AU        0.533302    0.538966    0.726213     0.007504
AU3707   AU        0.533096    0.574716    0.760336     0.007504
AU3708   AU        0.567222    0.540078    0.759891     0.007504
AU3709   AU        0.565908    0.573181    0.727303     0.007504
AU3710   AU        0.598012    0.538083    0.726263     0.007504
AU3711   AU        0.599408    0.575159    0.760153     0.007504
PD3712   PD        0.632223    0.542196    0.757691     0.005394
PD3713   PD        0.632061    0.575244    0.724245     0.005394
PD3714   PD        0.666167    0.539002    0.725653     0.005394
AU3715   AU        0.664698    0.575430    0.759757     0.007504
AU3716   AU        0.698911    0.540014    0.761278     0.007504
AU3717   AU        0.697267    0.573823    0.724584     0.007504
AU3718   AU        0.732934    0.541701    0.726691     0.007504
PD3719   PD        0.202129    0.611690    0.723986     0.005394
AU3720   AU        0.234571    0.605835    0.760606     0.007504
PD3721   PD        0.235265    0.642296    0.729012     0.005394
PD3722   PD        0.269250    0.606831    0.727227     0.005394
PD3723   PD        0.268772    0.644227    0.760144     0.005394
PD3724   PD        0.301966    0.608702    0.761568     0.005394
AU3725   AU        0.301933    0.643516    0.726745     0.007504
PD3726   PD        0.334095    0.607891    0.726310     0.005394
AU3727   AU        0.335305    0.643784    0.758082     0.007504
PD3728   PD        0.369057    0.608253    0.757741     0.005394
PD3729   PD        0.366924    0.645447    0.725581     0.005394
AU3730   AU        0.401245    0.607008    0.726714     0.007504
AU3731   AU        0.399961    0.644570    0.756873     0.007504
AU3732   AU        0.436681    0.610868    0.758972     0.007504
AU3733   AU        0.433254    0.643962    0.724707     0.007504
AU3734   AU        0.469545    0.608155    0.725581     0.007504
AU3735   AU        0.467705    0.645904    0.756231     0.007504
AU3736   AU        0.500067    0.610882    0.758361     0.007504
PD3737   PD        0.502381    0.648854    0.726780     0.005394
AU3738   AU        0.533825    0.607526    0.726648     0.007504
PD3739   PD        0.533674    0.642809    0.759533     0.005394
PD3740   PD        0.566851    0.610078    0.759903     0.005394
AU3741   AU        0.566471    0.645008    0.728268     0.007504
AU3742   AU        0.598754    0.609076    0.727826     0.007504
PD3743   PD        0.600613    0.642367    0.762122     0.005394
AU3744   AU        0.632444    0.609458    0.755741     0.007504
AU3745   AU        0.633429    0.646195    0.726453     0.007504
AU3746   AU        0.665549    0.610039    0.725021     0.007504
PD3747   PD        0.664782    0.644431    0.758570     0.005394
AU3748   AU        0.699486    0.609692    0.758094     0.007504
AU3749   AU        0.698996    0.644014    0.726169     0.007504
PD3750   PD        0.732373    0.611336    0.728130     0.005394
AU3751   AU        0.268764    0.677752    0.725602     0.007504
PD3752   PD        0.270151    0.716261    0.763681     0.005394
PD3753   PD        0.299682    0.715053    0.727005     0.005394
AU3754   AU        0.334743    0.680213    0.726478     0.007504
PD3755   PD        0.330958    0.714653    0.760365     0.005394
AU3756   AU        0.367946    0.679787    0.760200     0.007504
PD3757   PD        0.369255    0.714622    0.726086     0.005394
AU3758   AU        0.401924    0.681571    0.727366     0.007504
PD3759   PD        0.401446    0.718662    0.758807     0.005394
AU3760   AU        0.434370    0.679277    0.756939     0.007504
AU3761   AU        0.433959    0.718329    0.725006     0.007504
PD3762   PD        0.467658    0.681741    0.726081     0.005394
AU3763   AU        0.465830    0.716382    0.759793     0.007504
AU3764   AU        0.500904    0.680349    0.759313     0.007504
PD3765   PD        0.500576    0.717580    0.726238     0.005394
PD3766   PD        0.533260    0.683130    0.728398     0.005394
PD3767   PD        0.532729    0.715526    0.758952     0.005394
PD3768   PD        0.567099    0.680931    0.761958     0.005394
PD3769   PD        0.568553    0.714318    0.727206     0.005394
AU3770   AU        0.598980    0.679418    0.728388     0.007504
AU3771   AU        0.601879    0.714480    0.761632     0.007504
PD3772   PD        0.632018    0.675905    0.759812     0.005394
PD3773   PD        0.634041    0.714790    0.725888     0.005394
AU3774   AU        0.666845    0.680246    0.728162     0.007504
PD3775   PD        0.338097    0.752712    0.727780     0.005394
PD3776   PD        0.377669    0.773240    0.746879     0.005394
AU3777   AU        0.437321    0.753218    0.759692     0.007504
PD3778   PD        0.501380    0.791541    0.787223     0.005394
AU3779   AU        0.468363    0.752451    0.726659     0.007504
AU3780   AU        0.498392    0.751073    0.761506     0.007504
PD3781   PD        0.502358    0.785484    0.724963     0.005394
PD3782   PD        0.533285    0.750038    0.726261     0.005394
PD3783   PD        0.564778    0.786721    0.725257     0.005394
PD3784   PD        0.433539    0.216236    0.788316     0.005394
PD3785   PD        0.502657    0.217421    0.793503     0.005394
PD3786   PD        0.302443    0.294023    0.789536     0.005394
PD3787   PD        0.366679    0.290694    0.789199     0.005394
PD3788   PD        0.400185    0.252678    0.791594     0.005394
AU3789   AU        0.400159    0.293728    0.825093     0.007504
AU3790   AU        0.434910    0.288920    0.792407     0.007504
AU3791   AU        0.469565    0.250256    0.791299     0.007504
PD3792   PD        0.467054    0.291818    0.824710     0.005394
PD3793   PD        0.498937    0.291014    0.790480     0.005394
PD3794   PD        0.531632    0.254741    0.793017     0.005394
PD3795   PD        0.535819    0.259160    0.862284     0.005394
PD3796   PD        0.564774    0.292345    0.794049     0.005394
PD3797   PD        0.599568    0.331125    0.861886     0.005394
PD3798   PD        0.300324    0.359297    0.791171     0.005394
AU3799   AU        0.333982    0.325967    0.793245     0.007504
PD3800   PD        0.335057    0.364146    0.828181     0.005394
PD3801   PD        0.330885    0.317982    0.854644     0.005394
PD3802   PD        0.366988    0.361535    0.790051     0.005394
PD3803   PD        0.402151    0.323966    0.792698     0.005394
AU3804   AU        0.400220    0.359502    0.824625     0.007504
PD3805   PD        0.433611    0.325996    0.826886     0.005394
AU3806   AU        0.433695    0.359645    0.794023     0.007504
AU3807   AU        0.466028    0.325724    0.791752     0.007504
PD3808   PD        0.469210    0.361441    0.825721     0.005394
AU3809   AU        0.497633    0.326095    0.824300     0.007504
PD3810   PD        0.501719    0.361166    0.791623     0.005394
AU3811   AU        0.531536    0.323820    0.792392     0.007504
PD3812   PD        0.531861    0.361363    0.828431     0.005394
PD3813   PD        0.569714    0.326025    0.827023     0.005394
AU3814   AU        0.566269    0.362662    0.791631     0.007504
PD3815   PD        0.598237    0.324400    0.790278     0.005394
AU3816   AU        0.600564    0.363025    0.824546     0.007504
PD3817   PD        0.632883    0.362380    0.791861     0.005394
AU3818   AU        0.234638    0.435288    0.794245     0.007504
AU3819   AU        0.267258    0.394635    0.791939     0.007504
PD3820   PD        0.267117    0.401863    0.856891     0.005394
AU3821   AU        0.300584    0.433090    0.791503     0.007504
PD3822   PD        0.335809    0.399138    0.791583     0.005394
AU3823   AU        0.332874    0.433515    0.826557     0.007504
AU3824   AU        0.367843    0.396116    0.825360     0.007504
PD3825   PD        0.366450    0.430332    0.793144     0.005394
PD3826   PD        0.400403    0.397308    0.791381     0.005394
PD3827   PD        0.401292    0.432349    0.822406     0.005394
AU3828   AU        0.431550    0.398521    0.824687     0.007504
AU3829   AU        0.436415    0.431644    0.791994     0.007504
AU3830   AU        0.466897    0.395738    0.792132     0.007504
PD3831   PD        0.464905    0.430214    0.821671     0.005394
PD3832   PD        0.501697    0.399597    0.824416     0.005394
AU3833   AU        0.499035    0.433006    0.790290     0.007504
AU3834   AU        0.533306    0.396694    0.793082     0.007504
PD3835   PD        0.533621    0.434682    0.824223     0.005394
AU3836   AU        0.565943    0.398909    0.826736     0.007504
PD3837   PD        0.564628    0.431766    0.791718     0.005394
AU3838   AU        0.600085    0.399123    0.791841     0.007504
PD3839   PD        0.600918    0.433751    0.824272     0.005394
AU3840   AU        0.601069    0.396144    0.857196     0.007504
AU3841   AU        0.635803    0.431810    0.794243     0.007504
PD3842   PD        0.694068    0.434258    0.791287     0.005394
PD3843   PD        0.699915    0.470984    0.820072     0.005394
PD3844   PD        0.238520    0.504683    0.791994     0.005394
PD3845   PD        0.268626    0.467609    0.790891     0.005394
AU3846   AU        0.298875    0.470843    0.826140     0.007504
AU3847   AU        0.302418    0.503621    0.793504     0.007504
AU3848   AU        0.335469    0.468433    0.793758     0.007504
AU3849   AU        0.334979    0.501505    0.827525     0.007504
PD3850   PD        0.369067    0.466770    0.825133     0.005394
AU3851   AU        0.368884    0.504645    0.791234     0.007504
AU3852   AU        0.399710    0.467258    0.790429     0.007504
AU3853   AU        0.400909    0.501894    0.823852     0.007504
AU3854   AU        0.435022    0.468736    0.824939     0.007504
AU3855   AU        0.433892    0.501455    0.791447     0.007504
AU3856   AU        0.467300    0.466951    0.790382     0.007504
PD3857   PD        0.470383    0.505759    0.825822     0.005394
AU3858   AU        0.497524    0.465536    0.824126     0.007504
PD3859   PD        0.500809    0.502575    0.789555     0.005394
AU3860   AU        0.532702    0.467777    0.790902     0.007504
AU3861   AU        0.533331    0.502447    0.824258     0.007504
PD3862   PD        0.563848    0.465842    0.822093     0.005394
AU3863   AU        0.565615    0.503603    0.792064     0.007504
AU3864   AU        0.598001    0.467590    0.794217     0.007504
AU3865   AU        0.598229    0.504057    0.825044     0.007504
AU3866   AU        0.635172    0.466656    0.826784     0.007504
PD3867   PD        0.666954    0.505484    0.824647     0.005394
PD3868   PD        0.663651    0.470185    0.790939     0.005394
PD3869   PD        0.700553    0.504677    0.792035     0.005394
AU3870   AU        0.272249    0.538620    0.793435     0.007504
AU3871   AU        0.302646    0.538597    0.826283     0.007504
AU3872   AU        0.303935    0.573766    0.792696     0.007504
AU3873   AU        0.335711    0.536646    0.793441     0.007504
AU3874   AU        0.336945    0.571157    0.825553     0.007504
AU3875   AU        0.370101    0.538995    0.825626     0.007504
AU3876   AU        0.368416    0.573767    0.791496     0.007504
AU3877   AU        0.400938    0.538072    0.791154     0.007504
AU3878   AU        0.403038    0.573217    0.825323     0.007504
PD3879   PD        0.433858    0.539213    0.825252     0.005394
PD3880   PD        0.433131    0.573731    0.791751     0.005394
PD3881   PD        0.465239    0.539499    0.791417     0.005394
PD3882   PD        0.469408    0.577101    0.827412     0.005394
AU3883   AU        0.501400    0.540530    0.825700     0.007504
AU3884   AU        0.497967    0.575405    0.793108     0.007504
AU3885   AU        0.535775    0.539737    0.792587     0.007504
PD3886   PD        0.532387    0.574662    0.827540     0.005394
AU3887   AU        0.564947    0.540695    0.823990     0.007504
AU3888   AU        0.567575    0.575495    0.794098     0.007504
AU3889   AU        0.602395    0.539410    0.792050     0.007504
PD3890   PD        0.601012    0.575809    0.825303     0.005394
PD3891   PD        0.632286    0.570150    0.855020     0.005394
AU3892   AU        0.632457    0.575917    0.793419     0.007504
PD3893   PD        0.664416    0.540999    0.792708     0.005394
PD3894   PD        0.234488    0.648677    0.788612     0.005394
AU3895   AU        0.335245    0.607842    0.792197     0.007504
AU3896   AU        0.368479    0.609830    0.824577     0.007504
PD3897   PD        0.369575    0.641753    0.790459     0.005394
AU3898   AU        0.400640    0.607190    0.790088     0.007504
PD3899   PD        0.434310    0.640127    0.860730     0.005394
PD3900   PD        0.432308    0.609494    0.824671     0.005394
PD3901   PD        0.431968    0.646601    0.792345     0.005394
PD3902   PD        0.465460    0.610336    0.792306     0.005394
PD3903   PD        0.466217    0.606455    0.859675     0.005394
PD3904   PD        0.498405    0.607178    0.826028     0.005394
AU3905   AU        0.499416    0.644045    0.795094     0.007504
PD3906   PD        0.532765    0.609485    0.792676     0.005394
PD3907   PD        0.527990    0.641196    0.828926     0.005394
PD3908   PD        0.565248    0.611393    0.825424     0.005394
PD3909   PD        0.569102    0.647967    0.794491     0.005394
PD3910   PD        0.600298    0.610244    0.789763     0.005394
AU3911   AU        0.636438    0.610392    0.825749     0.007504
PD3912   PD        0.402360    0.678060    0.790726     0.005394
AU3913   AU        0.432973    0.713328    0.791089     0.007504
PD3914   PD        0.467805    0.680947    0.791827     0.005394
PD3915   PD        0.502707    0.713959    0.792333     0.005394
PD3916   PD        0.532796    0.678232    0.792933     0.005394
PD3917   PD        0.435481    0.433935    0.856237     0.005394
AU3918   AU        0.465952    0.396557    0.858646     0.007504
PD3919   PD        0.499231    0.432124    0.855795     0.005394
PD3920   PD        0.401001    0.467636    0.855687     0.005394
PD3921   PD        0.433856    0.505465    0.858539     0.005394
AU3922   AU        0.466072    0.468176    0.855503     0.007504
PD3923   PD        0.500421    0.503725    0.859450     0.005394
PD3924   PD        0.541636    0.447364    0.870618     0.005394
PD3925   PD        0.468666    0.538176    0.858257     0.005394
