data_00001
_audit_creation_method   'DISCUS'

_data_chemical_name_common 'Au.cell: Pearson 85'

_cell_length_a             61.1835
_cell_length_b             57.1046
_cell_length_c             57.1046
_cell_angle_alpha     90.0000
_cell_angle_beta      90.0000
_cell_angle_gamma     90.0000

_symmetry_space_group_name_H-M   'P1              '

loop_
_atom_site_label
_atom_site_symbol
_atom_site_fract_x
_atom_site_fract_y
_atom_site_fract_z
_atom_site_u_iso_or_equiv
PD1   PD        0.366476    0.292027    0.071842     0.005394
PD2   PD        0.431084    0.295660    0.074957     0.005394
PD3   PD        0.498318    0.294715    0.070125     0.005394
PD4   PD        0.300701    0.363935    0.074893     0.005394
PD5   PD        0.335643    0.327362    0.075661     0.005394
AU6   AU        0.368733    0.364035    0.071794     0.007504
PD7   PD        0.397319    0.285630    0.036982     0.005394
AU8   AU        0.433886    0.364677    0.071713     0.007504
AU9   AU        0.466111    0.330137    0.074041     0.007504
PD10   PD        0.495714    0.365704    0.074695     0.005394
PD11   PD        0.608595    0.268514    0.007542     0.005394
PD12   PD        0.566150    0.363852    0.075566     0.005394
AU13   AU        0.266561    0.399154    0.075193     0.007504
PD14   PD        0.266848    0.478046    0.001239     0.005394
PD15   PD        0.334226    0.396313    0.073046     0.005394
PD16   PD        0.368269    0.433996    0.073029     0.005394
AU17   AU        0.400746    0.399597    0.073956     0.007504
PD18   PD        0.399501    0.432682    0.034629     0.005394
PD19   PD        0.435091    0.401426    0.037014     0.005394
PD20   PD        0.436030    0.433128    0.074683     0.005394
PD21   PD        0.467914    0.399470    0.073794     0.005394
PD22   PD        0.465409    0.439357    0.038220     0.005394
AU23   AU        0.498114    0.437612    0.073853     0.007504
PD24   PD        0.533080    0.398283    0.072673     0.005394
AU25   AU        0.569560    0.433479    0.072714     0.007504
PD26   PD        0.599945    0.399194    0.072692     0.005394
PD27   PD        0.241158    0.471673    0.033121     0.005394
PD28   PD        0.302879    0.507111    0.073545     0.005394
AU29   AU        0.336718    0.470766    0.074400     0.007504
PD30   PD        0.369591    0.473496    0.035806     0.005394
PD31   PD        0.368980    0.504260    0.071667     0.005394
AU32   AU        0.399249    0.468394    0.071922     0.007504
PD33   PD        0.402042    0.509179    0.038733     0.005394
AU34   AU        0.431528    0.470879    0.039330     0.007504
PD35   PD        0.433067    0.506272    0.072979     0.005394
AU36   AU        0.465768    0.471754    0.076279     0.007504
PD37   PD        0.462643    0.505295    0.037043     0.005394
PD38   PD        0.498031    0.473874    0.037565     0.005394
PD39   PD        0.498107    0.504614    0.075663     0.005394
AU40   AU        0.533872    0.468582    0.073615     0.007504
PD41   PD        0.564897    0.503459    0.073942     0.005394
PD42   PD        0.598562    0.472112    0.072217     0.005394
PD43   PD        0.266829    0.542856    0.073177     0.005394
AU44   AU        0.303001    0.574878    0.072553     0.007504
PD45   PD        0.305428    0.542797    0.034926     0.005394
AU46   AU        0.368632    0.577742    0.074114     0.007504
AU47   AU        0.399438    0.540895    0.073540     0.007504
PD48   PD        0.428614    0.578553    0.000714     0.005394
AU49   AU        0.432088    0.575440    0.073256     0.007504
AU50   AU        0.467781    0.541329    0.070802     0.007504
PD51   PD        0.500693    0.579046    0.071995     0.005394
AU52   AU        0.533417    0.540538    0.075842     0.007504
PD53   PD        0.598918    0.608167    0.074055     0.005394
PD54   PD        0.597172    0.540101    0.075498     0.005394
PD55   PD        0.333176    0.609559    0.070427     0.005394
PD56   PD        0.289541    0.660008    0.014825     0.005394
PD57   PD        0.402184    0.611691    0.072694     0.005394
PD58   PD        0.397615    0.679860    0.072802     0.005394
PD59   PD        0.465378    0.614932    0.073258     0.005394
PD60   PD        0.498992    0.647690    0.077233     0.005394
PD61   PD        0.531217    0.611398    0.072055     0.005394
AU62   AU        0.302139    0.216455    0.143996     0.007504
PD63   PD        0.369186    0.218539    0.144091     0.005394
PD64   PD        0.401662    0.184161    0.147404     0.005394
PD65   PD        0.399202    0.217730    0.109952     0.005394
PD66   PD        0.433177    0.220835    0.142907     0.005394
PD67   PD        0.466071    0.185294    0.140716     0.005394
PD68   PD        0.460255    0.176490    0.086647     0.005394
AU69   AU        0.500468    0.220086    0.141848     0.007504
PD70   PD        0.565829    0.221123    0.143503     0.005394
PD71   PD        0.236413    0.293589    0.141645     0.005394
AU72   AU        0.269197    0.255910    0.145838     0.007504
PD73   PD        0.270305    0.290428    0.105376     0.005394
PD74   PD        0.302811    0.293220    0.140604     0.005394
PD75   PD        0.334603    0.258334    0.139652     0.005394
PD76   PD        0.338889    0.294579    0.108061     0.005394
PD77   PD        0.367005    0.252404    0.106511     0.005394
AU78   AU        0.368584    0.292697    0.144884     0.007504
AU79   AU        0.402545    0.257993    0.143041     0.007504
AU80   AU        0.399216    0.293893    0.108830     0.007504
AU81   AU        0.432822    0.258665    0.107026     0.007504
AU82   AU        0.435022    0.292836    0.145957     0.007504
PD83   PD        0.465567    0.253775    0.141646     0.005394
AU84   AU        0.469900    0.293342    0.109171     0.007504
PD85   PD        0.501784    0.257778    0.105481     0.005394
PD86   PD        0.502443    0.293606    0.144202     0.005394
AU87   AU        0.534881    0.257776    0.140995     0.007504
PD88   PD        0.535064    0.291783    0.107294     0.005394
AU89   AU        0.568896    0.292011    0.141707     0.007504
AU90   AU        0.598679    0.256953    0.140139     0.007504
PD91   PD        0.600835    0.297398    0.105356     0.005394
PD92   PD        0.665215    0.290996    0.105124     0.005394
PD93   PD        0.207292    0.326241    0.141693     0.005394
PD94   PD        0.235507    0.364161    0.142238     0.005394
PD95   PD        0.268464    0.327404    0.143424     0.005394
AU96   AU        0.267430    0.362966    0.107701     0.007504
AU97   AU        0.301135    0.328016    0.107343     0.007504
AU98   AU        0.300171    0.362428    0.142934     0.007504
PD99   PD        0.336929    0.328299    0.143728     0.005394
AU100   AU        0.333573    0.363187    0.108392     0.007504
AU101   AU        0.369698    0.328347    0.107749     0.007504
PD102   PD        0.366057    0.364367    0.145125     0.005394
AU103   AU        0.401265    0.327788    0.145310     0.007504
AU104   AU        0.401804    0.363862    0.107012     0.007504
AU105   AU        0.434168    0.329709    0.108643     0.007504
PD106   PD        0.435707    0.363859    0.142775     0.005394
PD107   PD        0.467945    0.326306    0.144879     0.005394
AU108   AU        0.464960    0.364779    0.111932     0.007504
AU109   AU        0.501105    0.328528    0.107511     0.007504
PD110   PD        0.501419    0.362614    0.143185     0.005394
PD111   PD        0.535385    0.328538    0.143826     0.005394
AU112   AU        0.534127    0.365532    0.108355     0.007504
AU113   AU        0.566272    0.329194    0.108080     0.007504
PD114   PD        0.567687    0.363738    0.143660     0.005394
PD115   PD        0.601466    0.326722    0.142971     0.005394
AU116   AU        0.601360    0.363902    0.107624     0.007504
PD117   PD        0.633027    0.362197    0.142624     0.005394
PD118   PD        0.668867    0.328808    0.141373     0.005394
PD119   PD        0.170219    0.437923    0.144172     0.005394
AU120   AU        0.203991    0.400171    0.145283     0.007504
PD121   PD        0.203015    0.435143    0.109790     0.005394
PD122   PD        0.235308    0.399598    0.110677     0.005394
AU123   AU        0.236413    0.433231    0.145965     0.007504
PD124   PD        0.267764    0.396606    0.143855     0.005394
PD125   PD        0.270790    0.433974    0.107428     0.005394
AU126   AU        0.300040    0.399737    0.108377     0.007504
AU127   AU        0.302630    0.434011    0.142062     0.007504
PD128   PD        0.334282    0.397153    0.146218     0.005394
AU129   AU        0.336192    0.434834    0.108487     0.007504
AU130   AU        0.368120    0.398157    0.108357     0.007504
AU131   AU        0.366702    0.433688    0.143659     0.007504
AU132   AU        0.401501    0.397461    0.144385     0.007504
AU133   AU        0.400992    0.433260    0.107650     0.007504
AU134   AU        0.434635    0.398422    0.107161     0.007504
AU135   AU        0.434309    0.432401    0.145607     0.007504
PD136   PD        0.468538    0.398985    0.144083     0.005394
PD137   PD        0.468752    0.434139    0.111054     0.005394
PD138   PD        0.498857    0.402017    0.108511     0.005394
PD139   PD        0.502153    0.434018    0.143550     0.005394
AU140   AU        0.533033    0.399899    0.142908     0.007504
PD141   PD        0.533173    0.433643    0.109352     0.005394
PD142   PD        0.567984    0.398799    0.108796     0.005394
AU143   AU        0.568636    0.433770    0.143367     0.007504
AU144   AU        0.600646    0.397675    0.143457     0.007504
PD145   PD        0.599537    0.431180    0.109478     0.005394
AU146   AU        0.633497    0.400084    0.107524     0.007504
AU147   AU        0.632603    0.433788    0.143292     0.007504
PD148   PD        0.667320    0.399169    0.143785     0.005394
PD149   PD        0.664777    0.435493    0.108973     0.005394
PD150   PD        0.697722    0.436628    0.144165     0.005394
PD151   PD        0.171784    0.500947    0.143648     0.005394
PD152   PD        0.199456    0.470701    0.143084     0.005394
PD153   PD        0.168869    0.568933    0.072097     0.005394
PD154   PD        0.235051    0.469827    0.110345     0.005394
PD155   PD        0.235867    0.505455    0.143216     0.005394
PD156   PD        0.269037    0.471254    0.143836     0.005394
PD157   PD        0.267163    0.506124    0.107477     0.005394
AU158   AU        0.300786    0.471556    0.109068     0.007504
PD159   PD        0.303574    0.506682    0.142161     0.005394
AU160   AU        0.335769    0.471967    0.145380     0.007504
AU161   AU        0.334997    0.507429    0.109549     0.007504
AU162   AU        0.368304    0.470511    0.109286     0.007504
PD163   PD        0.367340    0.506188    0.143802     0.005394
PD164   PD        0.401948    0.468884    0.143104     0.005394
AU165   AU        0.401496    0.504507    0.107427     0.007504
PD166   PD        0.433153    0.468036    0.110576     0.005394
PD167   PD        0.435239    0.504734    0.143395     0.005394
PD168   PD        0.465380    0.468635    0.142882     0.005394
PD169   PD        0.467794    0.509212    0.109562     0.005394
AU170   AU        0.501787    0.470750    0.109494     0.007504
PD171   PD        0.501552    0.504228    0.142370     0.005394
AU172   AU        0.533629    0.469233    0.145733     0.007504
AU173   AU        0.534095    0.505462    0.110289     0.007504
AU174   AU        0.564975    0.468942    0.110013     0.007504
AU175   AU        0.566230    0.504849    0.144228     0.007504
AU176   AU        0.600054    0.470523    0.143565     0.007504
AU177   AU        0.597287    0.504609    0.106852     0.007504
AU178   AU        0.630897    0.468876    0.106810     0.007504
AU179   AU        0.632274    0.505802    0.143250     0.007504
AU180   AU        0.664890    0.471626    0.141826     0.007504
PD181   PD        0.661260    0.503151    0.103191     0.005394
PD182   PD        0.698508    0.503734    0.144404     0.005394
AU183   AU        0.203320    0.539391    0.144111     0.007504
PD184   PD        0.234595    0.539695    0.108202     0.005394
PD185   PD        0.235756    0.573006    0.146073     0.005394
AU186   AU        0.269088    0.539249    0.143067     0.007504
AU187   AU        0.269454    0.575938    0.109364     0.007504
AU188   AU        0.302667    0.541221    0.109319     0.007504
AU189   AU        0.300952    0.576740    0.144732     0.007504
AU190   AU        0.334910    0.541923    0.144841     0.007504
PD191   PD        0.335905    0.575986    0.107123     0.005394
AU192   AU        0.367463    0.539733    0.110059     0.007504
PD193   PD        0.369507    0.574320    0.146174     0.005394
PD194   PD        0.399752    0.539601    0.144020     0.005394
AU195   AU        0.400945    0.576624    0.109005     0.007504
AU196   AU        0.434452    0.541215    0.107147     0.007504
PD197   PD        0.433652    0.572182    0.143639     0.005394
PD198   PD        0.468132    0.541496    0.144993     0.005394
AU199   AU        0.465636    0.577130    0.107143     0.007504
PD200   PD        0.499540    0.541353    0.108511     0.005394
AU201   AU        0.499255    0.577598    0.144162     0.007504
AU202   AU        0.531974    0.541121    0.144126     0.007504
AU203   AU        0.531732    0.576416    0.109240     0.007504
AU204   AU        0.566456    0.540358    0.110301     0.007504
AU205   AU        0.566401    0.575491    0.145026     0.007504
AU206   AU        0.599425    0.539580    0.142320     0.007504
AU207   AU        0.598257    0.576805    0.108769     0.007504
PD208   PD        0.631031    0.542951    0.107968     0.005394
AU209   AU        0.632654    0.576173    0.142389     0.007504
AU210   AU        0.695985    0.573600    0.139881     0.007504
PD211   PD        0.201970    0.610099    0.139703     0.005394
PD212   PD        0.233793    0.646144    0.142111     0.005394
AU213   AU        0.268734    0.611917    0.144083     0.007504
PD214   PD        0.271240    0.650223    0.107583     0.005394
PD215   PD        0.301618    0.613292    0.109815     0.005394
AU216   AU        0.303578    0.646635    0.144040     0.007504
PD217   PD        0.335674    0.613509    0.143026     0.005394
AU218   AU        0.336911    0.645436    0.105714     0.007504
PD219   PD        0.369160    0.612702    0.110066     0.005394
AU220   AU        0.367363    0.647132    0.144629     0.007504
AU221   AU        0.401501    0.611484    0.145630     0.007504
AU222   AU        0.400465    0.646877    0.108615     0.007504
PD223   PD        0.434737    0.611595    0.110328     0.005394
PD224   PD        0.434252    0.647715    0.142757     0.005394
AU225   AU        0.465862    0.610877    0.143471     0.007504
AU226   AU        0.466349    0.647202    0.109235     0.007504
AU227   AU        0.498847    0.610893    0.109371     0.007504
AU228   AU        0.500401    0.646948    0.142494     0.007504
PD229   PD        0.534629    0.613927    0.144242     0.005394
AU230   AU        0.532985    0.647349    0.108257     0.007504
AU231   AU        0.565663    0.610581    0.106635     0.007504
AU232   AU        0.566967    0.646863    0.142605     0.007504
AU233   AU        0.600437    0.611967    0.143638     0.007504
PD234   PD        0.566796    0.650686    0.072969     0.005394
PD235   PD        0.634810    0.647197    0.142438     0.005394
PD236   PD        0.663065    0.612660    0.138812     0.005394
PD237   PD        0.270159    0.679982    0.145334     0.005394
PD238   PD        0.302558    0.717377    0.141572     0.005394
AU239   AU        0.332761    0.680989    0.143326     0.007504
AU240   AU        0.368629    0.683098    0.110878     0.007504
AU241   AU        0.366882    0.719506    0.143853     0.007504
AU242   AU        0.400143    0.682459    0.144598     0.007504
PD243   PD        0.400750    0.717184    0.109880     0.005394
PD244   PD        0.433592    0.682723    0.111216     0.005394
AU245   AU        0.432209    0.718276    0.145061     0.007504
PD246   PD        0.468306    0.683425    0.144528     0.005394
PD247   PD        0.464531    0.718835    0.111029     0.005394
AU248   AU        0.501200    0.682628    0.107394     0.007504
AU249   AU        0.500202    0.717788    0.142969     0.007504
PD250   PD        0.531753    0.680997    0.146881     0.005394
PD251   PD        0.600789    0.723026    0.106321     0.005394
PD252   PD        0.594554    0.686744    0.142072     0.005394
PD253   PD        0.402544    0.753122    0.146852     0.005394
PD254   PD        0.466132    0.754629    0.146567     0.005394
PD255   PD        0.265997    0.151588    0.175595     0.005394
PD256   PD        0.368725    0.150460    0.214308     0.005394
PD257   PD        0.406534    0.119813    0.211679     0.005394
PD258   PD        0.405546    0.152769    0.175046     0.005394
PD259   PD        0.432882    0.151367    0.211863     0.005394
PD260   PD        0.467104    0.113788    0.215524     0.005394
PD261   PD        0.468416    0.151871    0.178072     0.005394
PD262   PD        0.498654    0.149561    0.215263     0.005394
PD263   PD        0.531556    0.111791    0.209968     0.005394
AU264   AU        0.237968    0.220273    0.213251     0.007504
AU265   AU        0.267768    0.184679    0.216008     0.007504
PD266   PD        0.271546    0.218412    0.181146     0.005394
PD267   PD        0.303436    0.180269    0.183027     0.005394
AU268   AU        0.301884    0.219129    0.215729     0.007504
PD269   PD        0.336231    0.185628    0.216549     0.005394
AU270   AU        0.333909    0.217738    0.176953     0.007504
PD271   PD        0.367116    0.185856    0.177266     0.005394
PD272   PD        0.367143    0.221057    0.214406     0.005394
PD273   PD        0.400417    0.187840    0.214345     0.005394
AU274   AU        0.401918    0.221078    0.177930     0.007504
PD275   PD        0.436771    0.187721    0.177900     0.005394
AU276   AU        0.436223    0.221593    0.213114     0.007504
PD277   PD        0.467545    0.184571    0.214177     0.005394
AU278   AU        0.468141    0.221098    0.177414     0.007504
PD279   PD        0.501651    0.184745    0.176428     0.005394
PD280   PD        0.500677    0.221201    0.216032     0.005394
PD281   PD        0.531462    0.185625    0.215986     0.005394
PD282   PD        0.534545    0.218573    0.177283     0.005394
AU283   AU        0.565383    0.184641    0.178471     0.007504
PD284   PD        0.565959    0.220289    0.210742     0.005394
AU285   AU        0.600769    0.188271    0.213568     0.007504
AU286   AU        0.596917    0.220675    0.177371     0.007504
PD287   PD        0.633636    0.219325    0.210835     0.005394
AU288   AU        0.172972    0.289231    0.213395     0.007504
AU289   AU        0.206050    0.254212    0.218287     0.007504
AU290   AU        0.202201    0.291764    0.176717     0.007504
AU291   AU        0.234341    0.256901    0.177428     0.007504
AU292   AU        0.236233    0.289952    0.213597     0.007504
AU293   AU        0.269494    0.256891    0.214652     0.007504
AU294   AU        0.268934    0.292221    0.176869     0.007504
AU295   AU        0.301528    0.255015    0.179067     0.007504
PD296   PD        0.300760    0.292992    0.211946     0.005394
PD297   PD        0.335089    0.256518    0.211599     0.005394
PD298   PD        0.335016    0.293536    0.177553     0.005394
PD299   PD        0.369911    0.255738    0.176988     0.005394
AU300   AU        0.367732    0.289315    0.212684     0.007504
AU301   AU        0.400142    0.255813    0.211587     0.007504
AU302   AU        0.400849    0.291818    0.179133     0.007504
AU303   AU        0.434576    0.255157    0.178554     0.007504
AU304   AU        0.434977    0.289462    0.213014     0.007504
PD305   PD        0.467222    0.257133    0.210848     0.005394
AU306   AU        0.469632    0.291171    0.178162     0.007504
PD307   PD        0.500653    0.256965    0.179556     0.005394
AU308   AU        0.502101    0.290310    0.215709     0.007504
PD309   PD        0.533891    0.255504    0.213704     0.005394
PD310   PD        0.535313    0.290940    0.179712     0.005394
AU311   AU        0.568571    0.257842    0.177841     0.007504
PD312   PD        0.569963    0.293308    0.211579     0.005394
PD313   PD        0.602170    0.254064    0.210073     0.005394
PD314   PD        0.601940    0.290553    0.177172     0.005394
PD315   PD        0.630278    0.257445    0.180544     0.005394
PD316   PD        0.633537    0.291947    0.213345     0.005394
PD317   PD        0.711825    0.217548    0.219851     0.005394
AU318   AU        0.665082    0.291918    0.179585     0.007504
PD319   PD        0.699039    0.292142    0.213969     0.005394
PD320   PD        0.137933    0.327553    0.210895     0.005394
PD321   PD        0.143223    0.327885    0.141705     0.005394
PD322   PD        0.173469    0.363727    0.215050     0.005394
PD323   PD        0.204905    0.326415    0.216709     0.005394
AU324   AU        0.202961    0.362446    0.179022     0.007504
AU325   AU        0.234714    0.328073    0.180399     0.007504
AU326   AU        0.236159    0.362944    0.213654     0.007504
PD327   PD        0.269037    0.328163    0.212700     0.005394
PD328   PD        0.267233    0.363719    0.179349     0.005394
AU329   AU        0.301805    0.328933    0.176581     0.007504
PD330   PD        0.300859    0.363416    0.214502     0.005394
PD331   PD        0.335532    0.325946    0.216869     0.005394
AU332   AU        0.335358    0.363387    0.179161     0.007504
PD333   PD        0.370715    0.328713    0.178005     0.005394
AU334   AU        0.367836    0.362907    0.212190     0.007504
AU335   AU        0.402984    0.324876    0.214186     0.007504
PD336   PD        0.403936    0.362548    0.181153     0.005394
AU337   AU        0.435191    0.327043    0.180102     0.007504
AU338   AU        0.433797    0.362939    0.216862     0.007504
AU339   AU        0.468253    0.325182    0.213024     0.007504
PD340   PD        0.469424    0.362276    0.181133     0.005394
AU341   AU        0.502182    0.325607    0.179680     0.007504
AU342   AU        0.501356    0.363519    0.213835     0.007504
AU343   AU        0.535560    0.326597    0.214104     0.007504
PD344   PD        0.534511    0.362040    0.176880     0.005394
AU345   AU        0.566399    0.328405    0.177033     0.007504
AU346   AU        0.570119    0.362825    0.212851     0.007504
AU347   AU        0.601506    0.326100    0.215165     0.007504
PD348   PD        0.600686    0.361861    0.178194     0.005394
PD349   PD        0.633645    0.330068    0.178022     0.005394
PD350   PD        0.634675    0.364556    0.213597     0.005394
AU351   AU        0.668274    0.327256    0.215708     0.007504
PD352   PD        0.666323    0.362541    0.180838     0.005394
PD353   PD        0.700935    0.327515    0.175722     0.005394
AU354   AU        0.700418    0.362713    0.212600     0.007504
PD355   PD        0.732456    0.326580    0.214638     0.005394
PD356   PD        0.105467    0.435087    0.215180     0.005394
PD357   PD        0.138289    0.397825    0.215303     0.005394
PD358   PD        0.134791    0.467946    0.145257     0.005394
PD359   PD        0.173780    0.398890    0.177449     0.005394
PD360   PD        0.169501    0.432663    0.214417     0.005394
AU361   AU        0.205452    0.398579    0.214640     0.007504
AU362   AU        0.203500    0.433476    0.180964     0.007504
PD363   PD        0.237965    0.398564    0.178027     0.005394
AU364   AU        0.236623    0.435771    0.212742     0.007504
AU365   AU        0.267828    0.397455    0.214610     0.007504
PD366   PD        0.267927    0.437542    0.178207     0.005394
AU367   AU        0.299033    0.397595    0.179237     0.007504
AU368   AU        0.300923    0.435967    0.213900     0.007504
PD369   PD        0.333044    0.399452    0.213036     0.005394
PD370   PD        0.334365    0.436120    0.178902     0.005394
PD371   PD        0.367518    0.401008    0.177975     0.005394
PD372   PD        0.367162    0.435633    0.214345     0.005394
PD373   PD        0.401235    0.398058    0.216360     0.005394
PD374   PD        0.400698    0.434226    0.179092     0.005394
PD375   PD        0.435131    0.396416    0.181036     0.005394
PD376   PD        0.435463    0.436001    0.214090     0.005394
PD377   PD        0.467550    0.397097    0.215787     0.005394
AU378   AU        0.469851    0.434535    0.180316     0.007504
PD379   PD        0.500146    0.399656    0.179523     0.005394
PD380   PD        0.503485    0.432261    0.215311     0.005394
AU381   AU        0.535664    0.398659    0.213811     0.007504
PD382   PD        0.536404    0.432649    0.178489     0.005394
AU383   AU        0.566863    0.397708    0.176807     0.007504
PD384   PD        0.568331    0.434853    0.212561     0.005394
AU385   AU        0.600412    0.397916    0.213553     0.007504
AU386   AU        0.600664    0.433774    0.177773     0.007504
PD387   PD        0.633724    0.396199    0.178304     0.005394
AU388   AU        0.632509    0.434728    0.212438     0.007504
AU389   AU        0.667278    0.399359    0.212590     0.007504
AU390   AU        0.664790    0.435990    0.178046     0.007504
PD391   PD        0.698410    0.400635    0.178897     0.005394
PD392   PD        0.698981    0.435861    0.212932     0.005394
PD393   PD        0.731347    0.400730    0.212162     0.005394
PD394   PD        0.735234    0.437700    0.175697     0.005394
PD395   PD        0.764996    0.438753    0.213234     0.005394
PD396   PD        0.102746    0.502329    0.215101     0.005394
AU397   AU        0.139423    0.471282    0.217017     0.007504
PD398   PD        0.136425    0.502477    0.177544     0.005394
AU399   AU        0.170919    0.468772    0.180059     0.007504
PD400   PD        0.170603    0.507671    0.213739     0.005394
AU401   AU        0.203123    0.466941    0.216125     0.007504
AU402   AU        0.202736    0.505700    0.180541     0.007504
AU403   AU        0.237088    0.471944    0.175917     0.007504
AU404   AU        0.234815    0.503281    0.215499     0.007504
AU405   AU        0.266424    0.470185    0.215351     0.007504
AU406   AU        0.270975    0.504866    0.177434     0.007504
AU407   AU        0.301157    0.469262    0.178387     0.007504
AU408   AU        0.300248    0.505054    0.215039     0.007504
PD409   PD        0.333262    0.471650    0.214588     0.005394
AU410   AU        0.332903    0.507324    0.178141     0.007504
PD411   PD        0.369048    0.471994    0.179582     0.005394
PD412   PD        0.366665    0.504733    0.212714     0.005394
PD413   PD        0.400362    0.471947    0.214358     0.005394
PD414   PD        0.399790    0.504744    0.177661     0.005394
AU415   AU        0.432214    0.467924    0.179604     0.007504
AU416   AU        0.435486    0.505095    0.214446     0.007504
PD417   PD        0.469811    0.470947    0.214310     0.005394
AU418   AU        0.466556    0.504526    0.178744     0.007504
AU419   AU        0.500220    0.469285    0.179164     0.007504
AU420   AU        0.501400    0.505432    0.213229     0.007504
PD421   PD        0.533218    0.470813    0.214203     0.005394
AU422   AU        0.537171    0.505362    0.179375     0.007504
PD423   PD        0.568836    0.469997    0.178845     0.005394
AU424   AU        0.567232    0.506046    0.214664     0.007504
AU425   AU        0.601881    0.471639    0.215449     0.007504
AU426   AU        0.599556    0.504958    0.179327     0.007504
PD427   PD        0.632405    0.471101    0.177488     0.005394
AU428   AU        0.633487    0.505338    0.212680     0.007504
PD429   PD        0.664497    0.469512    0.214279     0.005394
AU430   AU        0.665817    0.504691    0.179355     0.007504
PD431   PD        0.697879    0.471543    0.179660     0.005394
AU432   AU        0.699707    0.507418    0.214571     0.007504
PD433   PD        0.731380    0.470263    0.215426     0.005394
PD434   PD        0.729474    0.504341    0.181826     0.005394
AU435   AU        0.765089    0.503532    0.213369     0.007504
PD436   PD        0.133017    0.544499    0.143219     0.005394
AU437   AU        0.169224    0.542370    0.179310     0.007504
PD438   PD        0.169286    0.573852    0.217498     0.005394
PD439   PD        0.202846    0.540632    0.213220     0.005394
PD440   PD        0.200520    0.574603    0.177977     0.005394
AU441   AU        0.237151    0.537877    0.180089     0.007504
PD442   PD        0.236749    0.576497    0.214504     0.005394
PD443   PD        0.268201    0.537975    0.216019     0.005394
AU444   AU        0.268056    0.574390    0.180684     0.007504
AU445   AU        0.300244    0.541606    0.181331     0.007504
AU446   AU        0.301491    0.576096    0.213137     0.007504
AU447   AU        0.335610    0.540334    0.214257     0.007504
PD448   PD        0.335267    0.576693    0.177942     0.005394
PD449   PD        0.370002    0.541017    0.179518     0.005394
AU450   AU        0.367164    0.576939    0.213656     0.007504
AU451   AU        0.399260    0.539595    0.213083     0.007504
AU452   AU        0.402786    0.574650    0.179234     0.007504
AU453   AU        0.433861    0.537379    0.179197     0.007504
AU454   AU        0.434306    0.576209    0.213952     0.007504
AU455   AU        0.467825    0.540668    0.214569     0.007504
AU456   AU        0.466234    0.574800    0.179491     0.007504
AU457   AU        0.500389    0.539694    0.177763     0.007504
PD458   PD        0.499234    0.576610    0.213658     0.005394
PD459   PD        0.532321    0.541493    0.210527     0.005394
AU460   AU        0.533869    0.577949    0.177469     0.007504
AU461   AU        0.567063    0.542720    0.178928     0.007504
PD462   PD        0.566332    0.578662    0.211431     0.005394
AU463   AU        0.600550    0.540818    0.212789     0.007504
AU464   AU        0.599774    0.575513    0.175895     0.007504
AU465   AU        0.633924    0.539589    0.175978     0.007504
AU466   AU        0.633255    0.576809    0.210256     0.007504
PD467   PD        0.666021    0.540004    0.211762     0.005394
AU468   AU        0.666949    0.578639    0.178277     0.007504
AU469   AU        0.698809    0.540977    0.177729     0.007504
AU470   AU        0.700271    0.574735    0.214904     0.007504
AU471   AU        0.731590    0.541332    0.213546     0.007504
AU472   AU        0.134368    0.611993    0.218419     0.007504
PD473   PD        0.168137    0.611309    0.179343     0.005394
PD474   PD        0.165258    0.645802    0.212776     0.005394
PD475   PD        0.201145    0.610019    0.215666     0.005394
PD476   PD        0.204752    0.643806    0.179176     0.005394
AU477   AU        0.236214    0.612744    0.178915     0.007504
AU478   AU        0.236699    0.646866    0.214241     0.007504
AU479   AU        0.268381    0.610341    0.214996     0.007504
AU480   AU        0.269180    0.647113    0.178300     0.007504
AU481   AU        0.301058    0.610557    0.179903     0.007504
PD482   PD        0.300992    0.645423    0.214343     0.005394
PD483   PD        0.333034    0.611233    0.215171     0.005394
PD484   PD        0.332950    0.645876    0.178899     0.005394
PD485   PD        0.367846    0.610281    0.178381     0.005394
PD486   PD        0.368358    0.651351    0.213856     0.005394
AU487   AU        0.402323    0.611663    0.214023     0.007504
AU488   AU        0.400492    0.647399    0.179150     0.007504
AU489   AU        0.433938    0.611088    0.179191     0.007504
PD490   PD        0.433338    0.645762    0.213306     0.005394
AU491   AU        0.466522    0.612324    0.213374     0.007504
AU492   AU        0.465965    0.647937    0.181114     0.007504
AU493   AU        0.499284    0.613684    0.178806     0.007504
PD494   PD        0.498642    0.650099    0.213261     0.005394
PD495   PD        0.531772    0.610945    0.212419     0.005394
PD496   PD        0.533297    0.649046    0.180468     0.005394
PD497   PD        0.566402    0.612428    0.178169     0.005394
PD498   PD        0.565446    0.647756    0.213040     0.005394
AU499   AU        0.598961    0.612153    0.212359     0.007504
PD500   PD        0.598725    0.648895    0.177764     0.005394
AU501   AU        0.634045    0.613782    0.178809     0.007504
AU502   AU        0.631515    0.647159    0.212961     0.007504
AU503   AU        0.666491    0.611678    0.213555     0.007504
PD504   PD        0.695275    0.678571    0.180192     0.005394
PD505   PD        0.735020    0.580538    0.110577     0.005394
PD506   PD        0.697115    0.646917    0.213522     0.005394
PD507   PD        0.732613    0.610573    0.207937     0.005394
PD508   PD        0.200229    0.682763    0.217204     0.005394
AU509   AU        0.235220    0.682051    0.181534     0.007504
AU510   AU        0.236371    0.716970    0.215685     0.007504
PD511   PD        0.268488    0.683087    0.214137     0.005394
AU512   AU        0.270595    0.719604    0.178541     0.007504
AU513   AU        0.303346    0.682628    0.178244     0.007504
AU514   AU        0.304502    0.720879    0.213538     0.007504
AU515   AU        0.336013    0.682620    0.212729     0.007504
AU516   AU        0.335116    0.718932    0.179014     0.007504
AU517   AU        0.368111    0.682407    0.178502     0.007504
AU518   AU        0.369581    0.718666    0.213754     0.007504
AU519   AU        0.401654    0.682372    0.213448     0.007504
AU520   AU        0.400084    0.717678    0.178085     0.007504
AU521   AU        0.434086    0.681873    0.180254     0.007504
PD522   PD        0.433541    0.719035    0.214343     0.005394
PD523   PD        0.466955    0.682462    0.214637     0.005394
PD524   PD        0.466767    0.718213    0.179994     0.005394
PD525   PD        0.499319    0.681304    0.178656     0.005394
AU526   AU        0.499830    0.718503    0.213864     0.007504
AU527   AU        0.532547    0.682989    0.214613     0.007504
AU528   AU        0.532689    0.717137    0.180866     0.007504
AU529   AU        0.565422    0.681438    0.178714     0.007504
AU530   AU        0.564574    0.719275    0.213946     0.007504
AU531   AU        0.598746    0.683260    0.214086     0.007504
PD532   PD        0.597274    0.719040    0.177585     0.005394
PD533   PD        0.633111    0.679994    0.177585     0.005394
AU534   AU        0.629800    0.719686    0.213670     0.007504
AU535   AU        0.664514    0.680884    0.215238     0.007504
PD536   PD        0.263787    0.752863    0.212134     0.005394
PD537   PD        0.303351    0.756474    0.179944     0.005394
PD538   PD        0.300993    0.788015    0.216880     0.005394
AU539   AU        0.334821    0.754664    0.214359     0.007504
PD540   PD        0.369376    0.754165    0.181076     0.005394
PD541   PD        0.366632    0.789815    0.216870     0.005394
AU542   AU        0.402128    0.754282    0.214756     0.007504
PD543   PD        0.401993    0.788104    0.178906     0.005394
AU544   AU        0.434111    0.753108    0.177957     0.007504
AU545   AU        0.434778    0.788548    0.214779     0.007504
PD546   PD        0.470785    0.757783    0.214082     0.005394
PD547   PD        0.533724    0.857528    0.100430     0.005394
AU548   AU        0.499497    0.751677    0.176994     0.007504
PD549   PD        0.498417    0.793938    0.217354     0.005394
AU550   AU        0.533094    0.754508    0.214778     0.007504
PD551   PD        0.564721    0.755963    0.180992     0.005394
PD552   PD        0.616382    0.834743    0.203258     0.005394
AU553   AU        0.596892    0.753830    0.215490     0.007504
AU554   AU        0.401804    0.823680    0.215389     0.007504
PD555   PD        0.466134    0.823827    0.217547     0.005394
PD556   PD        0.369554    0.076936    0.284883     0.005394
AU557   AU        0.434255    0.078451    0.284606     0.007504
PD558   PD        0.498237    0.080386    0.281996     0.005394
AU559   AU        0.238396    0.147866    0.287847     0.007504
PD560   PD        0.237672    0.044952    0.323007     0.005394
PD561   PD        0.267228    0.150214    0.251841     0.005394
PD562   PD        0.302162    0.145589    0.284303     0.005394
AU563   AU        0.337585    0.111176    0.285719     0.007504
AU564   AU        0.333940    0.147715    0.249870     0.007504
PD565   PD        0.368667    0.112817    0.249929     0.005394
AU566   AU        0.367234    0.147880    0.284929     0.007504
AU567   AU        0.400239    0.112751    0.284035     0.007504
AU568   AU        0.401265    0.147862    0.249776     0.007504
AU569   AU        0.435049    0.115508    0.248459     0.007504
AU570   AU        0.434457    0.149701    0.284721     0.007504
AU571   AU        0.466603    0.113377    0.287122     0.007504
PD572   PD        0.468863    0.149750    0.250932     0.005394
PD573   PD        0.496893    0.112118    0.253537     0.005394
AU574   AU        0.503228    0.148549    0.283582     0.007504
PD575   PD        0.532361    0.114902    0.283832     0.005394
PD576   PD        0.534378    0.147897    0.247553     0.005394
PD577   PD        0.569246    0.149726    0.284192     0.005394
PD578   PD        0.604244    0.080215    0.240925     0.005394
AU579   AU        0.602203    0.153092    0.249822     0.007504
PD580   PD        0.635849    0.149594    0.285500     0.005394
AU581   AU        0.171024    0.217599    0.284901     0.007504
PD582   PD        0.202262    0.183863    0.282820     0.005394
PD583   PD        0.203203    0.218713    0.250074     0.005394
PD584   PD        0.233224    0.184485    0.251900     0.005394
PD585   PD        0.236591    0.220612    0.286948     0.005394
PD586   PD        0.268702    0.186430    0.282867     0.005394
AU587   AU        0.269002    0.221691    0.251031     0.007504
PD588   PD        0.302877    0.183976    0.249582     0.005394
PD589   PD        0.302656    0.219997    0.287130     0.005394
PD590   PD        0.334141    0.184482    0.284290     0.005394
AU591   AU        0.333631    0.221794    0.249047     0.007504
AU592   AU        0.366784    0.183798    0.250140     0.007504
PD593   PD        0.367927    0.217497    0.286421     0.005394
AU594   AU        0.401898    0.183942    0.283642     0.007504
AU595   AU        0.399076    0.218008    0.250606     0.007504
PD596   PD        0.433224    0.183247    0.248443     0.005394
AU597   AU        0.432761    0.217336    0.283157     0.007504
AU598   AU        0.466581    0.183079    0.284741     0.007504
AU599   AU        0.467109    0.219838    0.250695     0.007504
PD600   PD        0.499638    0.185868    0.250906     0.005394
AU601   AU        0.501257    0.221982    0.285355     0.007504
PD602   PD        0.534431    0.183658    0.282807     0.005394
AU603   AU        0.534057    0.218857    0.248158     0.007504
AU604   AU        0.567872    0.182766    0.250084     0.007504
PD605   PD        0.568454    0.219918    0.282271     0.005394
AU606   AU        0.601845    0.185727    0.285618     0.007504
PD607   PD        0.601350    0.220588    0.246624     0.005394
PD608   PD        0.639329    0.184649    0.253405     0.005394
PD609   PD        0.636498    0.217034    0.284722     0.005394
PD610   PD        0.670000    0.186007    0.282151     0.005394
PD611   PD        0.661127    0.124450    0.250530     0.005394
PD612   PD        0.704573    0.217854    0.286419     0.005394
PD613   PD        0.062428    0.257094    0.289121     0.005394
PD614   PD        0.138129    0.252393    0.283632     0.005394
PD615   PD        0.169898    0.222391    0.212391     0.005394
PD616   PD        0.173202    0.256322    0.251321     0.005394
PD617   PD        0.167708    0.290662    0.286552     0.005394
PD618   PD        0.204908    0.254512    0.287531     0.005394
AU619   AU        0.202970    0.291521    0.251977     0.007504
PD620   PD        0.236841    0.256071    0.251126     0.005394
PD621   PD        0.238002    0.292706    0.287084     0.005394
PD622   PD        0.268704    0.255661    0.285933     0.005394
AU623   AU        0.268792    0.291784    0.247909     0.007504
AU624   AU        0.301332    0.254884    0.248977     0.007504
AU625   AU        0.301418    0.289217    0.286923     0.007504
PD626   PD        0.334552    0.252967    0.283619     0.005394
AU627   AU        0.334290    0.288129    0.249386     0.007504
AU628   AU        0.369943    0.256282    0.248506     0.007504
PD629   PD        0.368230    0.287847    0.286620     0.005394
PD630   PD        0.400561    0.253059    0.285562     0.005394
PD631   PD        0.401531    0.290694    0.248261     0.005394
AU632   AU        0.432601    0.255825    0.248787     0.007504
PD633   PD        0.434405    0.291958    0.282785     0.005394
AU634   AU        0.467284    0.253807    0.284328     0.007504
AU635   AU        0.466187    0.291705    0.248967     0.007504
PD636   PD        0.500672    0.253628    0.249789     0.005394
PD637   PD        0.500466    0.289248    0.283204     0.005394
PD638   PD        0.534473    0.254603    0.285554     0.005394
AU639   AU        0.533087    0.288955    0.247564     0.007504
PD640   PD        0.567172    0.256822    0.245336     0.005394
PD641   PD        0.569106    0.291929    0.285483     0.005394
PD642   PD        0.601516    0.255028    0.283073     0.005394
PD643   PD        0.601665    0.290208    0.249174     0.005394
PD644   PD        0.636421    0.255101    0.247191     0.005394
AU645   AU        0.634804    0.291584    0.285790     0.007504
AU646   AU        0.668634    0.254137    0.283248     0.007504
AU647   AU        0.667682    0.292126    0.249490     0.007504
AU648   AU        0.702611    0.256588    0.249401     0.007504
AU649   AU        0.699055    0.290343    0.284230     0.007504
AU650   AU        0.734710    0.256832    0.285006     0.007504
AU651   AU        0.735019    0.290354    0.250613     0.007504
PD652   PD        0.837017    0.218093    0.282383     0.005394
PD653   PD        0.101182    0.365148    0.285704     0.005394
PD654   PD        0.135039    0.329127    0.283435     0.005394
PD655   PD        0.137041    0.362453    0.250272     0.005394
PD656   PD        0.170795    0.325511    0.251835     0.005394
PD657   PD        0.169965    0.361052    0.284216     0.005394
PD658   PD        0.205557    0.326904    0.288523     0.005394
AU659   AU        0.201674    0.363578    0.250876     0.007504
AU660   AU        0.236341    0.326873    0.247268     0.007504
AU661   AU        0.234314    0.362709    0.284076     0.007504
PD662   PD        0.268616    0.327940    0.286588     0.005394
PD663   PD        0.267833    0.362382    0.249575     0.005394
AU664   AU        0.301238    0.325734    0.250382     0.007504
PD665   PD        0.301687    0.361963    0.287241     0.005394
PD666   PD        0.334284    0.328503    0.285148     0.005394
PD667   PD        0.334075    0.362461    0.252036     0.005394
PD668   PD        0.370808    0.323340    0.250639     0.005394
AU669   AU        0.368698    0.363448    0.286499     0.007504
AU670   AU        0.402290    0.327539    0.284587     0.007504
AU671   AU        0.399466    0.360363    0.249030     0.007504
PD672   PD        0.433936    0.325380    0.248979     0.005394
AU673   AU        0.433998    0.362329    0.284405     0.007504
AU674   AU        0.467785    0.325218    0.286104     0.007504
AU675   AU        0.469570    0.360632    0.249660     0.007504
PD676   PD        0.501446    0.326734    0.248166     0.005394
AU677   AU        0.502349    0.361199    0.284190     0.007504
PD678   PD        0.535363    0.324672    0.282709     0.005394
PD679   PD        0.533486    0.363282    0.249895     0.005394
AU680   AU        0.566528    0.326870    0.249563     0.007504
AU681   AU        0.567967    0.361978    0.284056     0.007504
PD682   PD        0.599733    0.324918    0.283103     0.005394
AU683   AU        0.601387    0.364078    0.249573     0.007504
AU684   AU        0.635047    0.328306    0.249074     0.007504
AU685   AU        0.634726    0.363381    0.283578     0.007504
AU686   AU        0.667219    0.328199    0.283953     0.007504
AU687   AU        0.667023    0.363309    0.249521     0.007504
AU688   AU        0.699188    0.327150    0.249044     0.007504
AU689   AU        0.699897    0.361646    0.283420     0.007504
PD690   PD        0.731608    0.325168    0.283401     0.005394
AU691   AU        0.733712    0.362326    0.248172     0.007504
AU692   AU        0.764581    0.362668    0.284844     0.007504
PD693   PD        0.038646    0.351224    0.283992     0.005394
PD694   PD        0.105835    0.405601    0.253381     0.005394
PD695   PD        0.104079    0.435115    0.284836     0.005394
PD696   PD        0.134630    0.398521    0.285549     0.005394
AU697   AU        0.138126    0.436370    0.250883     0.007504
PD698   PD        0.168702    0.397383    0.250040     0.005394
AU699   AU        0.169393    0.433888    0.287987     0.007504
AU700   AU        0.203248    0.398597    0.285211     0.007504
PD701   PD        0.200016    0.429952    0.249877     0.005394
AU702   AU        0.235969    0.398620    0.250296     0.007504
AU703   AU        0.235797    0.431734    0.284686     0.007504
PD704   PD        0.269833    0.399285    0.283710     0.005394
AU705   AU        0.267719    0.435166    0.250589     0.007504
PD706   PD        0.299584    0.398056    0.247357     0.005394
AU707   AU        0.301321    0.432416    0.286443     0.007504
AU708   AU        0.334718    0.398793    0.285323     0.007504
PD709   PD        0.331475    0.432925    0.252356     0.005394
PD710   PD        0.366041    0.399501    0.249131     0.005394
PD711   PD        0.368537    0.433565    0.287635     0.005394
AU712   AU        0.399658    0.398378    0.283350     0.007504
AU713   AU        0.400642    0.434938    0.247801     0.007504
AU714   AU        0.435255    0.400116    0.249689     0.007504
PD715   PD        0.434949    0.436303    0.286053     0.005394
AU716   AU        0.465877    0.398585    0.284897     0.007504
PD717   PD        0.469216    0.433443    0.247734     0.005394
PD718   PD        0.501077    0.397008    0.249375     0.005394
PD719   PD        0.501048    0.436019    0.282501     0.005394
AU720   AU        0.534280    0.399057    0.284382     0.007504
PD721   PD        0.535267    0.436421    0.250933     0.005394
PD722   PD        0.568014    0.398571    0.250359     0.005394
AU723   AU        0.566282    0.433579    0.286619     0.007504
AU724   AU        0.600732    0.397558    0.284545     0.007504
PD725   PD        0.601454    0.435215    0.250032     0.005394
AU726   AU        0.632907    0.401065    0.249021     0.007504
PD727   PD        0.633289    0.435325    0.283575     0.005394
PD728   PD        0.665969    0.396624    0.284221     0.005394
PD729   PD        0.670285    0.434630    0.248234     0.005394
AU730   AU        0.698747    0.398378    0.248296     0.007504
PD731   PD        0.699338    0.432584    0.285244     0.005394
PD732   PD        0.730287    0.398567    0.284927     0.005394
PD733   PD        0.734365    0.431195    0.250381     0.005394
PD734   PD        0.764320    0.403128    0.247963     0.005394
PD735   PD        0.765087    0.435538    0.284685     0.005394
AU736   AU        0.796326    0.397417    0.282467     0.007504
PD737   PD        0.069171    0.474531    0.283141     0.005394
AU738   AU        0.105612    0.470142    0.250153     0.007504
PD739   PD        0.103416    0.503984    0.285964     0.005394
AU740   AU        0.138364    0.471582    0.286776     0.007504
PD741   PD        0.136521    0.504924    0.249589     0.005394
AU742   AU        0.171555    0.470427    0.250131     0.007504
PD743   PD        0.171047    0.505634    0.288684     0.005394
PD744   PD        0.203242    0.467876    0.287688     0.005394
AU745   AU        0.202547    0.506127    0.249819     0.007504
AU746   AU        0.234203    0.468826    0.250384     0.007504
AU747   AU        0.235079    0.506376    0.285110     0.007504
AU748   AU        0.267461    0.469558    0.286650     0.007504
PD749   PD        0.269663    0.504315    0.249643     0.005394
AU750   AU        0.299617    0.469085    0.248842     0.007504
AU751   AU        0.300295    0.503465    0.286571     0.007504
AU752   AU        0.334939    0.469598    0.285362     0.007504
AU753   AU        0.335261    0.504780    0.250410     0.007504
AU754   AU        0.367953    0.468472    0.251979     0.007504
AU755   AU        0.367880    0.505568    0.285905     0.007504
PD756   PD        0.400286    0.469574    0.285876     0.005394
AU757   AU        0.400378    0.505817    0.251126     0.007504
PD758   PD        0.434366    0.470066    0.249688     0.005394
PD759   PD        0.436161    0.502346    0.287131     0.005394
PD760   PD        0.468004    0.468958    0.284028     0.005394
AU761   AU        0.467632    0.507232    0.250910     0.007504
AU762   AU        0.501861    0.472694    0.246125     0.007504
AU763   AU        0.502095    0.505854    0.284656     0.007504
PD764   PD        0.536626    0.470932    0.283780     0.005394
AU765   AU        0.535404    0.506974    0.248731     0.007504
AU766   AU        0.569930    0.469277    0.251674     0.007504
AU767   AU        0.568413    0.507090    0.283811     0.007504
PD768   PD        0.603131    0.471267    0.285301     0.005394
AU769   AU        0.602329    0.506415    0.250262     0.007504
PD770   PD        0.634418    0.471508    0.247931     0.005394
AU771   AU        0.634134    0.507195    0.284886     0.007504
PD772   PD        0.667452    0.470560    0.284455     0.005394
AU773   AU        0.667646    0.506740    0.248648     0.007504
PD774   PD        0.700751    0.470127    0.251974     0.005394
PD775   PD        0.701310    0.504896    0.283314     0.005394
PD776   PD        0.734409    0.468414    0.284390     0.005394
PD777   PD        0.733588    0.506485    0.248391     0.005394
PD778   PD        0.765641    0.471406    0.251761     0.005394
PD779   PD        0.765557    0.505443    0.287000     0.005394
PD780   PD        0.797768    0.467692    0.282200     0.005394
PD781   PD        0.070864    0.543992    0.288323     0.005394
PD782   PD        0.105164    0.535764    0.251902     0.005394
AU783   AU        0.103642    0.576786    0.289103     0.007504
AU784   AU        0.137386    0.539656    0.286184     0.007504
AU785   AU        0.132309    0.576113    0.253218     0.007504
PD786   PD        0.172222    0.539634    0.251021     0.005394
AU787   AU        0.168610    0.576138    0.285848     0.007504
AU788   AU        0.201650    0.540047    0.286214     0.007504
AU789   AU        0.202163    0.577675    0.252311     0.007504
AU790   AU        0.234079    0.543627    0.249492     0.007504
PD791   PD        0.234451    0.578424    0.285913     0.005394
AU792   AU        0.270413    0.541663    0.284275     0.007504
PD793   PD        0.269196    0.577064    0.248016     0.005394
AU794   AU        0.301908    0.540849    0.249911     0.007504
AU795   AU        0.302324    0.575877    0.284081     0.007504
AU796   AU        0.336086    0.540097    0.283723     0.007504
AU797   AU        0.334575    0.577263    0.249278     0.007504
AU798   AU        0.368308    0.539511    0.248983     0.007504
AU799   AU        0.368704    0.574929    0.284402     0.007504
AU800   AU        0.401992    0.539121    0.286737     0.007504
AU801   AU        0.401500    0.576607    0.248544     0.007504
AU802   AU        0.433576    0.539487    0.249592     0.007504
AU803   AU        0.435515    0.575031    0.285484     0.007504
PD804   PD        0.467287    0.541776    0.287493     0.005394
AU805   AU        0.466699    0.576986    0.250262     0.007504
AU806   AU        0.499732    0.538933    0.250109     0.007504
AU807   AU        0.502540    0.574605    0.285817     0.007504
PD808   PD        0.535829    0.541388    0.283057     0.005394
PD809   PD        0.532251    0.573721    0.246179     0.005394
AU810   AU        0.566573    0.543649    0.246536     0.007504
AU811   AU        0.567479    0.577854    0.284568     0.007504
AU812   AU        0.600470    0.542389    0.283541     0.007504
PD813   PD        0.601880    0.575195    0.246425     0.005394
AU814   AU        0.634789    0.543659    0.249610     0.007504
PD815   PD        0.630928    0.577366    0.283610     0.005394
AU816   AU        0.667022    0.542508    0.284291     0.007504
AU817   AU        0.666013    0.576019    0.249106     0.007504
AU818   AU        0.700248    0.541713    0.250768     0.007504
AU819   AU        0.700217    0.576412    0.284829     0.007504
PD820   PD        0.731270    0.542273    0.282689     0.005394
AU821   AU        0.735783    0.577117    0.248442     0.007504
AU822   AU        0.764446    0.539737    0.248325     0.007504
PD823   PD        0.766655    0.580045    0.282337     0.005394
PD824   PD        0.797235    0.540544    0.283120     0.005394
PD825   PD        0.103718    0.643791    0.288844     0.005394
AU826   AU        0.138063    0.613294    0.287985     0.007504
PD827   PD        0.100100    0.680341    0.258990     0.005394
AU828   AU        0.168188    0.610426    0.251662     0.007504
AU829   AU        0.169631    0.648802    0.284720     0.007504
PD830   PD        0.203437    0.614533    0.287426     0.005394
AU831   AU        0.202260    0.646401    0.249036     0.007504
PD832   PD        0.236435    0.611547    0.251152     0.005394
PD833   PD        0.236170    0.649442    0.285983     0.005394
AU834   AU        0.269026    0.612896    0.286154     0.007504
PD835   PD        0.267922    0.646844    0.252100     0.005394
PD836   PD        0.300890    0.614632    0.251067     0.005394
AU837   AU        0.301306    0.647738    0.288251     0.007504
PD838   PD        0.334311    0.612388    0.285216     0.005394
PD839   PD        0.332944    0.648066    0.247057     0.005394
PD840   PD        0.369295    0.608852    0.248946     0.005394
AU841   AU        0.368945    0.645162    0.284087     0.007504
AU842   AU        0.401468    0.610032    0.285903     0.007504
AU843   AU        0.402894    0.647422    0.247081     0.007504
PD844   PD        0.435269    0.609432    0.251458     0.005394
PD845   PD        0.434824    0.646126    0.283907     0.005394
AU846   AU        0.468454    0.611020    0.287303     0.007504
PD847   PD        0.467277    0.648037    0.250086     0.005394
AU848   AU        0.500795    0.610490    0.250187     0.007504
AU849   AU        0.501468    0.647403    0.283994     0.007504
PD850   PD        0.533340    0.610012    0.283002     0.005394
PD851   PD        0.533456    0.646032    0.249972     0.005394
AU852   AU        0.567476    0.611180    0.247123     0.007504
AU853   AU        0.567498    0.647325    0.284992     0.007504
AU854   AU        0.600084    0.613794    0.282130     0.007504
AU855   AU        0.598610    0.648532    0.248147     0.007504
PD856   PD        0.632758    0.611517    0.249194     0.005394
AU857   AU        0.632109    0.649331    0.285040     0.007504
PD858   PD        0.667537    0.610253    0.281943     0.005394
AU859   AU        0.665936    0.647287    0.250385     0.007504
AU860   AU        0.699961    0.610960    0.248770     0.007504
AU861   AU        0.699674    0.647286    0.283711     0.007504
AU862   AU        0.732148    0.613348    0.283714     0.007504
AU863   AU        0.733498    0.648125    0.248130     0.007504
AU864   AU        0.762503    0.650723    0.285151     0.007504
AU865   AU        0.134778    0.681706    0.287048     0.007504
AU866   AU        0.173062    0.681771    0.247805     0.007504
PD867   PD        0.167522    0.715167    0.282409     0.005394
PD868   PD        0.204457    0.682034    0.285792     0.005394
AU869   AU        0.202829    0.717166    0.248759     0.007504
AU870   AU        0.235291    0.682355    0.248267     0.007504
PD871   PD        0.233751    0.717345    0.283100     0.005394
PD872   PD        0.267784    0.683144    0.286813     0.005394
AU873   AU        0.270932    0.718648    0.248806     0.007504
PD874   PD        0.299347    0.682979    0.252161     0.005394
AU875   AU        0.301141    0.720388    0.285864     0.007504
PD876   PD        0.333350    0.681119    0.285719     0.005394
AU877   AU        0.333559    0.720423    0.249831     0.007504
AU878   AU        0.366762    0.682813    0.250351     0.007504
PD879   PD        0.367011    0.715453    0.284498     0.005394
PD880   PD        0.399703    0.682104    0.282970     0.005394
AU881   AU        0.400374    0.719146    0.250079     0.007504
AU882   AU        0.433857    0.684504    0.249242     0.007504
AU883   AU        0.434201    0.719971    0.283675     0.007504
AU884   AU        0.467298    0.682309    0.285409     0.007504
AU885   AU        0.466963    0.719390    0.249187     0.007504
PD886   PD        0.502062    0.684518    0.250220     0.005394
PD887   PD        0.500982    0.719289    0.285953     0.005394
AU888   AU        0.533542    0.684200    0.285435     0.007504
AU889   AU        0.533668    0.717916    0.247165     0.007504
AU890   AU        0.566179    0.681460    0.249165     0.007504
AU891   AU        0.565374    0.718968    0.284256     0.007504
PD892   PD        0.596892    0.683730    0.285042     0.005394
AU893   AU        0.597702    0.716895    0.249587     0.007504
AU894   AU        0.632071    0.682525    0.250507     0.007504
PD895   PD        0.632410    0.717087    0.284150     0.005394
PD896   PD        0.665642    0.684192    0.282028     0.005394
PD897   PD        0.664976    0.720025    0.245739     0.005394
PD898   PD        0.699816    0.681481    0.244745     0.005394
PD899   PD        0.699224    0.718557    0.282880     0.005394
PD900   PD        0.731685    0.685207    0.285633     0.005394
PD901   PD        0.202570    0.754575    0.285039     0.005394
PD902   PD        0.192585    0.821833    0.222639     0.005394
PD903   PD        0.236176    0.788800    0.284978     0.005394
AU904   AU        0.267862    0.753720    0.285054     0.007504
PD905   PD        0.266700    0.788678    0.251129     0.005394
PD906   PD        0.302965    0.756419    0.250821     0.005394
AU907   AU        0.301975    0.788061    0.286384     0.007504
PD908   PD        0.336227    0.750753    0.286109     0.005394
AU909   AU        0.337134    0.789010    0.251281     0.007504
AU910   AU        0.368962    0.755345    0.251034     0.007504
PD911   PD        0.369506    0.788462    0.286317     0.005394
PD912   PD        0.400662    0.751867    0.285018     0.005394
AU913   AU        0.401812    0.789065    0.249659     0.007504
PD914   PD        0.435736    0.757010    0.251091     0.005394
AU915   AU        0.432549    0.789277    0.286606     0.007504
PD916   PD        0.466245    0.755961    0.284243     0.005394
PD917   PD        0.468739    0.789609    0.249698     0.005394
PD918   PD        0.498282    0.756935    0.249747     0.005394
PD919   PD        0.499859    0.789948    0.286753     0.005394
AU920   AU        0.532773    0.752975    0.285703     0.007504
PD921   PD        0.532317    0.789224    0.252741     0.005394
AU922   AU        0.567918    0.755829    0.250247     0.007504
AU923   AU        0.565848    0.789796    0.286483     0.007504
AU924   AU        0.598905    0.755289    0.286310     0.007504
PD925   PD        0.600036    0.792320    0.251843     0.005394
PD926   PD        0.632548    0.754163    0.248855     0.005394
PD927   PD        0.635205    0.792158    0.284895     0.005394
PD928   PD        0.664814    0.752390    0.283781     0.005394
PD929   PD        0.268963    0.823283    0.290530     0.005394
PD930   PD        0.336402    0.825795    0.285104     0.005394
PD931   PD        0.369123    0.825113    0.251640     0.005394
PD932   PD        0.369061    0.861640    0.285435     0.005394
AU933   AU        0.401661    0.826091    0.285327     0.007504
PD934   PD        0.435074    0.822668    0.252264     0.005394
PD935   PD        0.434940    0.860584    0.286947     0.005394
PD936   PD        0.465077    0.822967    0.286298     0.005394
PD937   PD        0.500056    0.824078    0.256425     0.005394
PD938   PD        0.539828    0.868210    0.255580     0.005394
PD939   PD        0.533833    0.826503    0.285356     0.005394
PD940   PD        0.601138    0.823443    0.289083     0.005394
AU941   AU        0.303869    0.077585    0.357671     0.007504
PD942   PD        0.338877    0.080244    0.324974     0.005394
PD943   PD        0.369284    0.074508    0.360514     0.005394
AU944   AU        0.403060    0.077975    0.318556     0.007504
PD945   PD        0.433454    0.078104    0.356567     0.005394
AU946   AU        0.466284    0.077217    0.320757     0.007504
AU947   AU        0.500234    0.080546    0.356024     0.007504
PD948   PD        0.532173    0.078124    0.321822     0.005394
PD949   PD        0.570087    0.077207    0.355681     0.005394
PD950   PD        0.203272    0.151484    0.320622     0.005394
PD951   PD        0.235173    0.148150    0.354419     0.005394
AU952   AU        0.268892    0.111281    0.358412     0.007504
PD953   PD        0.270074    0.149535    0.320605     0.005394
PD954   PD        0.271875    0.075675    0.321289     0.005394
PD955   PD        0.301935    0.147473    0.354735     0.005394
AU956   AU        0.335093    0.114317    0.358563     0.007504
AU957   AU        0.335657    0.147095    0.319654     0.007504
PD958   PD        0.367261    0.110657    0.321876     0.005394
PD959   PD        0.367188    0.147180    0.354606     0.005394
AU960   AU        0.400784    0.111826    0.357015     0.007504
AU961   AU        0.400987    0.149298    0.319398     0.007504
AU962   AU        0.434904    0.113946    0.320203     0.007504
PD963   PD        0.432220    0.148858    0.356372     0.005394
AU964   AU        0.465918    0.114215    0.355249     0.007504
PD965   PD        0.467500    0.149359    0.321701     0.005394
AU966   AU        0.498278    0.114027    0.319981     0.007504
AU967   AU        0.502370    0.147547    0.355777     0.007504
PD968   PD        0.536968    0.113368    0.352695     0.005394
PD969   PD        0.531431    0.149545    0.321221     0.005394
AU970   AU        0.599039    0.113922    0.280618     0.007504
PD971   PD        0.568967    0.146761    0.355535     0.005394
AU972   AU        0.601556    0.113760    0.355659     0.007504
PD973   PD        0.600813    0.149517    0.318859     0.005394
PD974   PD        0.634281    0.149245    0.357561     0.005394
AU975   AU        0.669968    0.148689    0.321487     0.007504
PD976   PD        0.107714    0.203703    0.317324     0.005394
PD977   PD        0.169456    0.185507    0.322260     0.005394
PD978   PD        0.170338    0.222295    0.359908     0.005394
PD979   PD        0.203638    0.185507    0.355322     0.005394
PD980   PD        0.201957    0.217478    0.318740     0.005394
AU981   AU        0.239342    0.182147    0.320711     0.007504
AU982   AU        0.236298    0.218286    0.358436     0.007504
PD983   PD        0.269869    0.182937    0.357400     0.005394
PD984   PD        0.270315    0.219038    0.320628     0.005394
AU985   AU        0.302141    0.184203    0.318869     0.007504
PD986   PD        0.305917    0.217910    0.355145     0.005394
PD987   PD        0.337766    0.182729    0.356908     0.005394
AU988   AU        0.338254    0.219429    0.320244     0.007504
AU989   AU        0.368380    0.181912    0.319394     0.007504
PD990   PD        0.367223    0.218628    0.357218     0.005394
PD991   PD        0.398277    0.181024    0.356000     0.005394
AU992   AU        0.400736    0.218727    0.321388     0.007504
PD993   PD        0.433798    0.182956    0.320068     0.005394
PD994   PD        0.432228    0.219027    0.356136     0.005394
AU995   AU        0.468413    0.182931    0.355498     0.007504
PD996   PD        0.466841    0.220594    0.319890     0.005394
AU997   AU        0.500363    0.183894    0.318548     0.007504
AU998   AU        0.501496    0.219107    0.353637     0.007504
PD999   PD        0.535750    0.184501    0.356350     0.005394
AU1000   AU        0.535509    0.220379    0.318972     0.007504
PD1001   PD        0.566532    0.183929    0.321427     0.005394
PD1002   PD        0.569541    0.217551    0.356703     0.005394
PD1003   PD        0.601128    0.181970    0.356936     0.005394
PD1004   PD        0.603421    0.220416    0.319726     0.005394
PD1005   PD        0.634793    0.184440    0.322591     0.005394
PD1006   PD        0.637019    0.220692    0.358026     0.005394
PD1007   PD        0.668512    0.181249    0.357210     0.005394
PD1008   PD        0.665883    0.217076    0.321976     0.005394
PD1009   PD        0.702580    0.183504    0.319829     0.005394
PD1010   PD        0.701316    0.218865    0.353376     0.005394
PD1011   PD        0.736315    0.221220    0.323793     0.005394
PD1012   PD        0.103961    0.289943    0.363333     0.005394
PD1013   PD        0.134309    0.254015    0.360808     0.005394
PD1014   PD        0.134322    0.289440    0.324781     0.005394
PD1015   PD        0.173596    0.254282    0.320312     0.005394
PD1016   PD        0.168700    0.293607    0.356964     0.005394
PD1017   PD        0.202864    0.253452    0.356249     0.005394
PD1018   PD        0.199808    0.284038    0.320826     0.005394
AU1019   AU        0.236882    0.253501    0.321878     0.007504
PD1020   PD        0.234936    0.288592    0.355617     0.005394
PD1021   PD        0.267042    0.255969    0.360222     0.005394
PD1022   PD        0.269574    0.292167    0.323272     0.005394
PD1023   PD        0.302232    0.254905    0.324125     0.005394
PD1024   PD        0.305540    0.290755    0.355582     0.005394
PD1025   PD        0.335200    0.253497    0.357028     0.005394
PD1026   PD        0.333794    0.292075    0.321733     0.005394
PD1027   PD        0.369374    0.254898    0.323433     0.005394
AU1028   AU        0.369855    0.291830    0.355985     0.007504
PD1029   PD        0.400862    0.255661    0.358743     0.005394
AU1030   AU        0.401312    0.292549    0.319924     0.007504
PD1031   PD        0.432514    0.254934    0.318096     0.005394
PD1032   PD        0.433799    0.290228    0.355749     0.005394
PD1033   PD        0.470904    0.253744    0.357098     0.005394
PD1034   PD        0.469797    0.288060    0.321877     0.005394
PD1035   PD        0.502833    0.256192    0.320766     0.005394
PD1036   PD        0.503223    0.289447    0.355969     0.005394
AU1037   AU        0.536538    0.254142    0.355573     0.007504
PD1038   PD        0.537302    0.292081    0.323483     0.005394
PD1039   PD        0.569403    0.254509    0.317367     0.005394
AU1040   AU        0.567618    0.291113    0.354801     0.007504
PD1041   PD        0.601323    0.253771    0.355629     0.005394
PD1042   PD        0.602705    0.292094    0.321597     0.005394
PD1043   PD        0.634035    0.255425    0.321150     0.005394
AU1044   AU        0.636699    0.292693    0.357699     0.007504
PD1045   PD        0.670564    0.255596    0.355611     0.005394
AU1046   AU        0.668008    0.291281    0.319725     0.007504
AU1047   AU        0.700253    0.256501    0.319390     0.007504
AU1048   AU        0.699188    0.292952    0.356072     0.007504
PD1049   PD        0.730182    0.257309    0.358311     0.005394
AU1050   AU        0.730582    0.293686    0.320858     0.007504
PD1051   PD        0.765221    0.292574    0.354110     0.005394
PD1052   PD        0.070573    0.331516    0.362273     0.005394
AU1053   AU        0.071637    0.363694    0.325204     0.007504
PD1054   PD        0.101271    0.329025    0.322939     0.005394
PD1055   PD        0.103430    0.363073    0.361104     0.005394
AU1056   AU        0.134790    0.326349    0.356106     0.007504
PD1057   PD        0.135132    0.362920    0.321695     0.005394
PD1058   PD        0.168352    0.329023    0.321047     0.005394
PD1059   PD        0.167133    0.362697    0.357274     0.005394
PD1060   PD        0.203486    0.327596    0.356121     0.005394
AU1061   AU        0.201934    0.362525    0.320436     0.007504
AU1062   AU        0.236755    0.326341    0.321987     0.007504
AU1063   AU        0.236798    0.361959    0.356378     0.007504
AU1064   AU        0.269186    0.326550    0.358951     0.007504
AU1065   AU        0.268357    0.365234    0.320958     0.007504
AU1066   AU        0.301853    0.327814    0.322746     0.007504
AU1067   AU        0.303077    0.362084    0.358793     0.007504
PD1068   PD        0.337063    0.329792    0.355942     0.005394
AU1069   AU        0.333644    0.364307    0.320589     0.007504
PD1070   PD        0.370352    0.327459    0.319261     0.005394
AU1071   AU        0.367955    0.362950    0.354756     0.007504
PD1072   PD        0.402517    0.326692    0.356269     0.005394
AU1073   AU        0.401718    0.362489    0.321429     0.007504
PD1074   PD        0.435159    0.325032    0.321293     0.005394
AU1075   AU        0.434862    0.360111    0.357822     0.007504
PD1076   PD        0.469882    0.325391    0.354495     0.005394
AU1077   AU        0.468269    0.362869    0.320689     0.007504
PD1078   PD        0.504813    0.328572    0.319090     0.005394
AU1079   AU        0.500182    0.361975    0.355742     0.007504
PD1080   PD        0.535993    0.328660    0.356846     0.005394
PD1081   PD        0.536455    0.362994    0.320441     0.005394
AU1082   AU        0.567890    0.326488    0.317842     0.007504
AU1083   AU        0.570289    0.361486    0.354488     0.007504
AU1084   AU        0.601467    0.325088    0.354785     0.007504
PD1085   PD        0.600115    0.362264    0.318037     0.005394
PD1086   PD        0.634187    0.328108    0.319288     0.005394
PD1087   PD        0.633782    0.362745    0.358345     0.005394
PD1088   PD        0.667445    0.329383    0.355710     0.005394
AU1089   AU        0.668680    0.363329    0.318445     0.007504
PD1090   PD        0.698441    0.326601    0.321103     0.005394
AU1091   AU        0.699317    0.362614    0.353692     0.007504
AU1092   AU        0.732281    0.327703    0.356659     0.007504
PD1093   PD        0.734190    0.359074    0.320457     0.005394
PD1094   PD        0.767399    0.324390    0.315399     0.005394
PD1095   PD        0.765086    0.362686    0.352976     0.005394
PD1096   PD        0.796339    0.329797    0.360669     0.005394
AU1097   AU        0.798036    0.361212    0.318367     0.007504
PD1098   PD        0.072843    0.396706    0.362424     0.005394
PD1099   PD        0.064660    0.428899    0.330179     0.005394
PD1100   PD        0.103538    0.401017    0.322368     0.005394
PD1101   PD        0.104461    0.436080    0.358733     0.005394
PD1102   PD        0.135675    0.401042    0.356880     0.005394
PD1103   PD        0.136584    0.436443    0.322733     0.005394
AU1104   AU        0.169399    0.398419    0.323004     0.007504
PD1105   PD        0.169891    0.437139    0.358429     0.005394
AU1106   AU        0.203480    0.397343    0.358495     0.007504
AU1107   AU        0.202268    0.433831    0.322935     0.007504
PD1108   PD        0.234240    0.397046    0.321539     0.005394
AU1109   AU        0.234762    0.431806    0.355170     0.007504
AU1110   AU        0.268215    0.397901    0.355912     0.007504
AU1111   AU        0.266860    0.433587    0.319568     0.007504
AU1112   AU        0.301800    0.398282    0.321982     0.007504
AU1113   AU        0.300469    0.435152    0.354009     0.007504
AU1114   AU        0.335242    0.398153    0.356267     0.007504
AU1115   AU        0.335919    0.433818    0.319021     0.007504
AU1116   AU        0.367815    0.397638    0.321019     0.007504
AU1117   AU        0.367202    0.433145    0.356347     0.007504
AU1118   AU        0.402126    0.399761    0.357058     0.007504
AU1119   AU        0.399725    0.432784    0.321628     0.007504
AU1120   AU        0.433276    0.398152    0.321708     0.007504
AU1121   AU        0.434991    0.434010    0.357499     0.007504
PD1122   PD        0.466647    0.397051    0.355690     0.005394
AU1123   AU        0.468710    0.431758    0.321595     0.007504
AU1124   AU        0.501238    0.398265    0.317816     0.007504
AU1125   AU        0.500964    0.432653    0.356480     0.007504
AU1126   AU        0.533404    0.397154    0.357551     0.007504
AU1127   AU        0.535002    0.434246    0.321524     0.007504
PD1128   PD        0.566490    0.396764    0.319820     0.005394
AU1129   AU        0.567587    0.431694    0.356851     0.007504
AU1130   AU        0.601729    0.397007    0.354801     0.007504
AU1131   AU        0.601035    0.432412    0.320657     0.007504
AU1132   AU        0.633980    0.397422    0.320513     0.007504
AU1133   AU        0.634326    0.433539    0.354877     0.007504
AU1134   AU        0.666457    0.398071    0.355942     0.007504
AU1135   AU        0.665990    0.433066    0.317148     0.007504
PD1136   PD        0.701541    0.396770    0.320350     0.005394
AU1137   AU        0.699468    0.431496    0.354960     0.007504
PD1138   PD        0.731612    0.397389    0.357575     0.005394
PD1139   PD        0.734230    0.432972    0.321688     0.005394
AU1140   AU        0.764659    0.398585    0.321714     0.007504
AU1141   AU        0.765793    0.434803    0.356429     0.007504
AU1142   AU        0.798892    0.399227    0.354449     0.007504
PD1143   PD        0.795975    0.435190    0.319946     0.005394
PD1144   PD        0.071643    0.469137    0.357096     0.005394
PD1145   PD        0.072160    0.503261    0.321655     0.005394
PD1146   PD        0.101688    0.470460    0.319335     0.005394
PD1147   PD        0.105526    0.506069    0.357450     0.005394
AU1148   AU        0.136796    0.472756    0.356028     0.007504
PD1149   PD        0.137794    0.508873    0.320748     0.005394
PD1150   PD        0.171111    0.469805    0.320782     0.005394
PD1151   PD        0.170382    0.506629    0.357792     0.005394
AU1152   AU        0.203170    0.470558    0.361221     0.007504
PD1153   PD        0.204369    0.506603    0.322913     0.005394
AU1154   AU        0.234841    0.467298    0.320729     0.007504
PD1155   PD        0.237147    0.507255    0.354617     0.005394
AU1156   AU        0.266641    0.469549    0.354685     0.007504
AU1157   AU        0.266967    0.504610    0.320875     0.007504
AU1158   AU        0.300090    0.468663    0.321345     0.007504
AU1159   AU        0.302011    0.504844    0.354232     0.007504
PD1160   PD        0.334755    0.469119    0.358272     0.005394
AU1161   AU        0.334342    0.504317    0.320060     0.007504
AU1162   AU        0.366596    0.468877    0.321890     0.007504
AU1163   AU        0.366699    0.504352    0.356672     0.007504
AU1164   AU        0.401573    0.468749    0.357081     0.007504
AU1165   AU        0.400293    0.506100    0.323143     0.007504
AU1166   AU        0.435214    0.470543    0.322110     0.007504
AU1167   AU        0.434991    0.505355    0.357110     0.007504
AU1168   AU        0.468225    0.469540    0.356469     0.007504
AU1169   AU        0.468113    0.504580    0.321894     0.007504
AU1170   AU        0.502444    0.472514    0.322522     0.007504
AU1171   AU        0.502305    0.506162    0.355297     0.007504
AU1172   AU        0.535975    0.469672    0.356229     0.007504
AU1173   AU        0.536275    0.504838    0.319461     0.007504
AU1174   AU        0.568531    0.468528    0.319508     0.007504
PD1175   PD        0.568424    0.506110    0.356229     0.005394
PD1176   PD        0.601923    0.470533    0.353279     0.005394
PD1177   PD        0.598896    0.505534    0.322921     0.005394
AU1178   AU        0.634618    0.469870    0.319505     0.007504
AU1179   AU        0.635089    0.508893    0.356628     0.007504
PD1180   PD        0.664624    0.469846    0.358123     0.005394
PD1181   PD        0.665873    0.506906    0.320078     0.005394
AU1182   AU        0.700086    0.468344    0.318654     0.007504
PD1183   PD        0.701184    0.502475    0.357468     0.005394
PD1184   PD        0.730887    0.470084    0.356766     0.005394
PD1185   PD        0.733309    0.504817    0.321075     0.005394
PD1186   PD        0.768777    0.471638    0.319978     0.005394
PD1187   PD        0.765048    0.500595    0.358807     0.005394
PD1188   PD        0.799951    0.470480    0.356359     0.005394
PD1189   PD        0.800291    0.509316    0.320953     0.005394
AU1190   AU        0.070620    0.539235    0.357632     0.007504
PD1191   PD        0.037333    0.541729    0.322288     0.005394
AU1192   AU        0.104411    0.540068    0.321495     0.007504
AU1193   AU        0.101796    0.575365    0.357120     0.007504
PD1194   PD        0.134712    0.541564    0.356330     0.005394
AU1195   AU        0.137080    0.575552    0.321464     0.007504
PD1196   PD        0.170260    0.541913    0.322179     0.005394
AU1197   AU        0.170775    0.576714    0.358061     0.007504
PD1198   PD        0.205141    0.543933    0.354827     0.005394
AU1199   AU        0.202492    0.577087    0.319573     0.007504
AU1200   AU        0.235349    0.541290    0.322150     0.007504
AU1201   AU        0.235835    0.575954    0.356924     0.007504
AU1202   AU        0.270083    0.541641    0.355820     0.007504
AU1203   AU        0.267143    0.577631    0.318826     0.007504
AU1204   AU        0.301721    0.538974    0.319823     0.007504
AU1205   AU        0.301944    0.577209    0.356540     0.007504
PD1206   PD        0.331000    0.541256    0.356214     0.005394
AU1207   AU        0.334013    0.574894    0.319725     0.007504
AU1208   AU        0.367520    0.539560    0.320063     0.007504
AU1209   AU        0.368109    0.575428    0.356703     0.007504
AU1210   AU        0.398813    0.540474    0.356864     0.007504
AU1211   AU        0.402450    0.575947    0.319740     0.007504
AU1212   AU        0.434808    0.540154    0.322527     0.007504
AU1213   AU        0.434207    0.575291    0.356035     0.007504
AU1214   AU        0.468590    0.540705    0.358952     0.007504
AU1215   AU        0.467234    0.575782    0.321179     0.007504
AU1216   AU        0.502019    0.540476    0.323904     0.007504
AU1217   AU        0.501254    0.575302    0.355684     0.007504
AU1218   AU        0.536399    0.540336    0.356095     0.007504
PD1219   PD        0.532781    0.575986    0.318876     0.005394
AU1220   AU        0.569018    0.542086    0.320262     0.007504
AU1221   AU        0.567921    0.576525    0.357624     0.007504
AU1222   AU        0.601415    0.541596    0.356340     0.007504
PD1223   PD        0.600855    0.577095    0.320098     0.005394
AU1224   AU        0.633196    0.542485    0.318353     0.007504
AU1225   AU        0.633374    0.577295    0.356336     0.007504
PD1226   PD        0.667422    0.541898    0.357195     0.005394
AU1227   AU        0.668655    0.578573    0.320575     0.007504
PD1228   PD        0.699932    0.540265    0.319878     0.005394
PD1229   PD        0.701125    0.574443    0.353737     0.005394
PD1230   PD        0.732580    0.541456    0.355172     0.005394
PD1231   PD        0.733004    0.578279    0.316582     0.005394
AU1232   AU        0.764630    0.543714    0.317820     0.007504
AU1233   AU        0.763283    0.577790    0.355026     0.007504
PD1234   PD        0.848894    0.602166    0.366453     0.005394
PD1235   PD        0.837610    0.608021    0.328395     0.005394
PD1236   PD        0.070765    0.612613    0.357928     0.005394
AU1237   AU        0.104200    0.612542    0.325151     0.007504
AU1238   AU        0.102470    0.646633    0.359043     0.007504
PD1239   PD        0.139768    0.611991    0.358146     0.005394
AU1240   AU        0.135765    0.646688    0.324100     0.007504
PD1241   PD        0.170384    0.612592    0.322988     0.005394
AU1242   AU        0.169591    0.647391    0.356428     0.007504
AU1243   AU        0.203420    0.612255    0.356345     0.007504
PD1244   PD        0.204231    0.647139    0.322418     0.005394
PD1245   PD        0.234809    0.612092    0.324056     0.005394
AU1246   AU        0.236214    0.646362    0.358204     0.007504
AU1247   AU        0.268623    0.610856    0.357330     0.007504
AU1248   AU        0.267303    0.648601    0.321567     0.007504
AU1249   AU        0.300014    0.611808    0.320710     0.007504
PD1250   PD        0.300253    0.648391    0.356421     0.005394
AU1251   AU        0.333171    0.612933    0.355752     0.007504
AU1252   AU        0.335440    0.646669    0.320131     0.007504
PD1253   PD        0.366145    0.609961    0.319484     0.005394
AU1254   AU        0.366941    0.646098    0.357005     0.007504
AU1255   AU        0.402463    0.611632    0.356289     0.007504
AU1256   AU        0.402115    0.645738    0.318598     0.007504
AU1257   AU        0.434803    0.613252    0.322111     0.007504
AU1258   AU        0.433532    0.648752    0.355425     0.007504
PD1259   PD        0.467279    0.610238    0.353685     0.005394
AU1260   AU        0.466238    0.647776    0.319858     0.007504
AU1261   AU        0.500203    0.611881    0.319434     0.007504
PD1262   PD        0.499102    0.644653    0.357047     0.005394
AU1263   AU        0.533299    0.612669    0.354442     0.007504
AU1264   AU        0.533862    0.649202    0.319221     0.007504
PD1265   PD        0.566944    0.613244    0.319691     0.005394
PD1266   PD        0.566601    0.646850    0.356581     0.005394
PD1267   PD        0.599600    0.611953    0.354754     0.005394
PD1268   PD        0.600557    0.649206    0.321445     0.005394
PD1269   PD        0.632422    0.614088    0.320619     0.005394
PD1270   PD        0.635957    0.648114    0.354967     0.005394
AU1271   AU        0.666640    0.609802    0.355441     0.007504
AU1272   AU        0.666752    0.647249    0.320348     0.007504
PD1273   PD        0.700314    0.613056    0.320172     0.005394
AU1274   AU        0.697800    0.647518    0.354882     0.007504
AU1275   AU        0.731137    0.612706    0.352137     0.007504
PD1276   PD        0.729175    0.648757    0.319922     0.005394
AU1277   AU        0.763124    0.611712    0.317938     0.007504
AU1278   AU        0.765850    0.646591    0.355048     0.007504
PD1279   PD        0.795254    0.610121    0.356949     0.005394
PD1280   PD        0.135556    0.683881    0.359752     0.005394
PD1281   PD        0.136977    0.714748    0.325673     0.005394
AU1282   AU        0.168535    0.682120    0.320395     0.007504
PD1283   PD        0.169818    0.718203    0.356352     0.005394
AU1284   AU        0.201814    0.682366    0.356935     0.007504
AU1285   AU        0.202319    0.716507    0.321402     0.007504
PD1286   PD        0.238319    0.683809    0.322016     0.005394
AU1287   AU        0.235985    0.719341    0.356670     0.007504
AU1288   AU        0.268587    0.683023    0.358074     0.007504
PD1289   PD        0.266770    0.717684    0.320734     0.005394
PD1290   PD        0.300444    0.683564    0.324928     0.005394
AU1291   AU        0.299466    0.719712    0.359076     0.007504
AU1292   AU        0.335581    0.682000    0.356544     0.007504
AU1293   AU        0.334215    0.719217    0.322221     0.007504
PD1294   PD        0.367954    0.680823    0.318224     0.005394
PD1295   PD        0.368306    0.719070    0.354002     0.005394
AU1296   AU        0.399752    0.683512    0.355815     0.007504
AU1297   AU        0.399866    0.716799    0.321679     0.007504
AU1298   AU        0.432415    0.683185    0.318446     0.007504
AU1299   AU        0.433649    0.717718    0.353924     0.007504
AU1300   AU        0.467918    0.682363    0.355151     0.007504
AU1301   AU        0.466901    0.719481    0.318023     0.007504
AU1302   AU        0.499151    0.681511    0.320343     0.007504
AU1303   AU        0.501342    0.717537    0.353637     0.007504
AU1304   AU        0.532763    0.682544    0.355114     0.007504
PD1305   PD        0.532287    0.719863    0.321012     0.005394
AU1306   AU        0.566738    0.683866    0.319237     0.007504
AU1307   AU        0.566201    0.716562    0.353899     0.007504
AU1308   AU        0.598245    0.684529    0.355817     0.007504
AU1309   AU        0.600509    0.718010    0.319719     0.007504
PD1310   PD        0.633393    0.683706    0.321324     0.005394
PD1311   PD        0.634147    0.716642    0.356480     0.005394
PD1312   PD        0.667097    0.684780    0.356687     0.005394
PD1313   PD        0.666468    0.717495    0.319849     0.005394
AU1314   AU        0.697908    0.681957    0.320983     0.007504
PD1315   PD        0.701296    0.717888    0.356506     0.005394
PD1316   PD        0.732146    0.682452    0.358669     0.005394
PD1317   PD        0.728091    0.718761    0.324533     0.005394
PD1318   PD        0.169471    0.750551    0.316190     0.005394
PD1319   PD        0.202268    0.753387    0.355811     0.005394
PD1320   PD        0.202306    0.789317    0.320254     0.005394
PD1321   PD        0.234672    0.754150    0.320728     0.005394
AU1322   AU        0.232751    0.787792    0.359230     0.007504
PD1323   PD        0.266380    0.753699    0.360767     0.005394
AU1324   AU        0.267937    0.785667    0.322181     0.007504
AU1325   AU        0.301522    0.754013    0.322803     0.007504
PD1326   PD        0.300385    0.787166    0.356290     0.005394
AU1327   AU        0.335760    0.754511    0.355770     0.007504
AU1328   AU        0.335792    0.788325    0.322147     0.007504
PD1329   PD        0.367583    0.753634    0.319631     0.005394
AU1330   AU        0.368179    0.789468    0.356335     0.007504
AU1331   AU        0.399992    0.754363    0.356923     0.007504
PD1332   PD        0.401721    0.787526    0.321524     0.005394
AU1333   AU        0.431554    0.753290    0.320839     0.007504
AU1334   AU        0.433076    0.788391    0.357001     0.007504
AU1335   AU        0.467737    0.751218    0.354410     0.007504
AU1336   AU        0.465909    0.787225    0.321411     0.007504
PD1337   PD        0.501484    0.756553    0.321583     0.005394
PD1338   PD        0.500653    0.788834    0.356180     0.005394
AU1339   AU        0.535410    0.755264    0.355458     0.007504
PD1340   PD        0.535338    0.789239    0.319867     0.005394
AU1341   AU        0.568050    0.751222    0.320264     0.007504
PD1342   PD        0.567528    0.787291    0.354071     0.005394
AU1343   AU        0.602095    0.751522    0.356004     0.007504
PD1344   PD        0.598000    0.789628    0.320766     0.005394
PD1345   PD        0.634455    0.751001    0.322336     0.005394
PD1346   PD        0.633313    0.789148    0.352072     0.005394
PD1347   PD        0.664267    0.754092    0.359330     0.005394
PD1348   PD        0.664156    0.788499    0.323703     0.005394
AU1349   AU        0.696973    0.752535    0.317973     0.007504
AU1350   AU        0.268256    0.826128    0.357430     0.007504
PD1351   PD        0.303545    0.822255    0.321938     0.005394
PD1352   PD        0.304345    0.858607    0.358668     0.005394
AU1353   AU        0.336899    0.825067    0.355812     0.007504
AU1354   AU        0.335998    0.860088    0.320896     0.007504
AU1355   AU        0.369208    0.823292    0.319057     0.007504
AU1356   AU        0.367880    0.862162    0.355701     0.007504
AU1357   AU        0.399456    0.824144    0.356891     0.007504
AU1358   AU        0.401170    0.861501    0.321448     0.007504
AU1359   AU        0.431797    0.823573    0.322961     0.007504
PD1360   PD        0.435277    0.859953    0.357343     0.005394
PD1361   PD        0.467069    0.821361    0.358101     0.005394
PD1362   PD        0.464610    0.895451    0.284028     0.005394
AU1363   AU        0.500578    0.825247    0.320390     0.007504
PD1364   PD        0.497149    0.861761    0.357955     0.005394
PD1365   PD        0.531659    0.825007    0.357717     0.005394
PD1366   PD        0.532750    0.860755    0.325901     0.005394
PD1367   PD        0.563170    0.822422    0.320823     0.005394
PD1368   PD        0.565859    0.861598    0.359492     0.005394
PD1369   PD        0.596619    0.825265    0.356082     0.005394
PD1370   PD        0.236472    0.044556    0.373456     0.005394
PD1371   PD        0.264978    0.043378    0.424208     0.005394
AU1372   AU        0.336290    0.079524    0.396501     0.007504
PD1373   PD        0.370551    0.079713    0.429352     0.005394
PD1374   PD        0.400289    0.042232    0.431043     0.005394
PD1375   PD        0.401755    0.080554    0.393750     0.005394
PD1376   PD        0.435929    0.045871    0.392189     0.005394
PD1377   PD        0.434672    0.080309    0.429507     0.005394
AU1378   AU        0.466096    0.043495    0.426527     0.007504
AU1379   AU        0.467512    0.079880    0.393475     0.007504
AU1380   AU        0.499438    0.080808    0.430850     0.007504
PD1381   PD        0.535887    0.079532    0.395224     0.005394
PD1382   PD        0.568246    0.079111    0.432595     0.005394
PD1383   PD        0.600477    0.072653    0.400057     0.005394
PD1384   PD        0.151154    0.149796    0.422953     0.005394
PD1385   PD        0.206055    0.111916    0.430727     0.005394
PD1386   PD        0.201710    0.148758    0.394058     0.005394
PD1387   PD        0.240083    0.107491    0.397264     0.005394
AU1388   AU        0.237285    0.149191    0.431069     0.007504
PD1389   PD        0.271789    0.112042    0.429413     0.005394
AU1390   AU        0.267651    0.146628    0.394068     0.007504
AU1391   AU        0.302421    0.111868    0.394350     0.007504
PD1392   PD        0.300633    0.147385    0.431473     0.005394
AU1393   AU        0.337376    0.117944    0.429075     0.007504
PD1394   PD        0.335321    0.148141    0.393127     0.005394
AU1395   AU        0.368424    0.114918    0.391228     0.007504
AU1396   AU        0.371348    0.148875    0.431207     0.007504
AU1397   AU        0.403369    0.114492    0.430727     0.007504
PD1398   PD        0.402598    0.147042    0.393613     0.005394
AU1399   AU        0.434323    0.113916    0.393781     0.007504
AU1400   AU        0.436650    0.149003    0.429563     0.007504
PD1401   PD        0.466241    0.112479    0.429397     0.005394
PD1402   PD        0.469565    0.145811    0.390492     0.005394
PD1403   PD        0.501072    0.114803    0.392185     0.005394
PD1404   PD        0.500860    0.148141    0.426304     0.005394
PD1405   PD        0.534836    0.111272    0.431738     0.005394
PD1406   PD        0.535636    0.147939    0.393013     0.005394
PD1407   PD        0.570296    0.110857    0.393324     0.005394
AU1408   AU        0.568145    0.146044    0.427335     0.007504
PD1409   PD        0.602863    0.114032    0.430055     0.005394
AU1410   AU        0.601304    0.148348    0.393210     0.007504
PD1411   PD        0.634185    0.113354    0.391056     0.005394
PD1412   PD        0.635519    0.147268    0.428703     0.005394
PD1413   PD        0.666522    0.113058    0.424846     0.005394
PD1414   PD        0.666430    0.148832    0.393532     0.005394
PD1415   PD        0.699645    0.150646    0.424649     0.005394
PD1416   PD        0.099515    0.226683    0.428789     0.005394
PD1417   PD        0.104957    0.183427    0.469415     0.005394
PD1418   PD        0.126641    0.203841    0.375340     0.005394
PD1419   PD        0.168576    0.184537    0.392721     0.005394
AU1420   AU        0.169634    0.219222    0.429141     0.007504
PD1421   PD        0.203907    0.182618    0.430985     0.005394
AU1422   AU        0.202062    0.218755    0.394757     0.007504
PD1423   PD        0.232950    0.182928    0.393438     0.005394
AU1424   AU        0.236120    0.217411    0.429595     0.007504
PD1425   PD        0.269686    0.181724    0.428201     0.005394
PD1426   PD        0.266991    0.216856    0.392898     0.005394
PD1427   PD        0.301113    0.182574    0.392911     0.005394
PD1428   PD        0.301269    0.218508    0.427083     0.005394
PD1429   PD        0.334736    0.185226    0.431725     0.005394
PD1430   PD        0.332443    0.220479    0.394399     0.005394
PD1431   PD        0.366873    0.182197    0.394224     0.005394
AU1432   AU        0.369767    0.215987    0.429491     0.007504
AU1433   AU        0.403827    0.183327    0.429250     0.007504
PD1434   PD        0.404945    0.218536    0.393709     0.005394
AU1435   AU        0.435770    0.179978    0.392431     0.007504
PD1436   PD        0.435682    0.218530    0.428742     0.005394
PD1437   PD        0.469495    0.183039    0.430343     0.005394
AU1438   AU        0.468795    0.216340    0.392321     0.007504
AU1439   AU        0.503619    0.181483    0.393295     0.007504
AU1440   AU        0.501275    0.217645    0.429142     0.007504
AU1441   AU        0.534804    0.184230    0.429381     0.007504
PD1442   PD        0.535688    0.220357    0.393443     0.005394
PD1443   PD        0.568545    0.182882    0.396763     0.005394
PD1444   PD        0.568702    0.216721    0.429343     0.005394
AU1445   AU        0.602655    0.183400    0.428673     0.007504
PD1446   PD        0.603717    0.219743    0.391875     0.005394
AU1447   AU        0.633031    0.184804    0.392500     0.007504
AU1448   AU        0.635308    0.218778    0.428180     0.007504
AU1449   AU        0.667413    0.186344    0.426414     0.007504
PD1450   PD        0.666258    0.217752    0.388808     0.005394
AU1451   AU        0.701295    0.187086    0.389630     0.007504
PD1452   PD        0.701932    0.218168    0.425935     0.005394
PD1453   PD        0.735301    0.188402    0.421640     0.005394
AU1454   AU        0.732545    0.221404    0.391443     0.007504
PD1455   PD        0.770998    0.220067    0.425142     0.005394
PD1456   PD        0.040532    0.215045    0.436415     0.005394
PD1457   PD        0.066314    0.259155    0.435184     0.005394
AU1458   AU        0.104460    0.288769    0.428890     0.007504
AU1459   AU        0.138247    0.255018    0.429924     0.007504
PD1460   PD        0.137816    0.290149    0.396508     0.005394
AU1461   AU        0.170341    0.256287    0.392562     0.007504
PD1462   PD        0.169049    0.291683    0.430915     0.005394
AU1463   AU        0.202028    0.254470    0.428607     0.007504
PD1464   PD        0.203902    0.292634    0.391772     0.005394
AU1465   AU        0.234896    0.255280    0.393806     0.007504
PD1466   PD        0.235487    0.288616    0.430797     0.005394
AU1467   AU        0.267219    0.254599    0.429126     0.007504
AU1468   AU        0.266743    0.289648    0.392330     0.007504
PD1469   PD        0.301608    0.257159    0.390989     0.005394
AU1470   AU        0.301430    0.289423    0.428862     0.007504
PD1471   PD        0.334446    0.253259    0.429483     0.005394
PD1472   PD        0.336632    0.286908    0.392114     0.005394
AU1473   AU        0.366312    0.251902    0.392651     0.007504
PD1474   PD        0.369634    0.287202    0.426927     0.005394
PD1475   PD        0.403706    0.251963    0.430501     0.005394
PD1476   PD        0.401737    0.287543    0.393679     0.005394
AU1477   AU        0.437257    0.253422    0.392821     0.007504
PD1478   PD        0.434323    0.287724    0.430054     0.005394
PD1479   PD        0.467537    0.253336    0.429180     0.005394
AU1480   AU        0.469988    0.290822    0.391004     0.007504
PD1481   PD        0.501574    0.252018    0.390409     0.005394
PD1482   PD        0.503934    0.290487    0.428746     0.005394
PD1483   PD        0.534887    0.257352    0.429680     0.005394
AU1484   AU        0.534518    0.292248    0.388826     0.007504
PD1485   PD        0.568221    0.255078    0.390936     0.005394
PD1486   PD        0.569945    0.288971    0.425500     0.005394
PD1487   PD        0.600984    0.253736    0.429304     0.005394
PD1488   PD        0.601895    0.289839    0.390634     0.005394
PD1489   PD        0.636128    0.255466    0.391308     0.005394
PD1490   PD        0.631731    0.290321    0.427429     0.005394
PD1491   PD        0.667452    0.252540    0.424582     0.005394
PD1492   PD        0.667490    0.294265    0.392302     0.005394
AU1493   AU        0.699383    0.258380    0.392507     0.007504
PD1494   PD        0.698477    0.292095    0.425002     0.005394
PD1495   PD        0.733146    0.254906    0.428834     0.005394
PD1496   PD        0.731577    0.293624    0.391215     0.005394
PD1497   PD        0.763613    0.258511    0.391772     0.005394
PD1498   PD        0.763822    0.294419    0.429529     0.005394
PD1499   PD        0.795872    0.294290    0.390929     0.005394
PD1500   PD        0.034962    0.323899    0.395765     0.005394
PD1501   PD        0.071158    0.365781    0.397036     0.005394
AU1502   AU        0.103230    0.325864    0.396617     0.007504
AU1503   AU        0.104144    0.364087    0.429878     0.007504
AU1504   AU        0.136275    0.326583    0.429260     0.007504
PD1505   PD        0.135116    0.362421    0.394700     0.005394
PD1506   PD        0.170165    0.324574    0.392758     0.005394
PD1507   PD        0.168253    0.360281    0.433055     0.005394
PD1508   PD        0.202194    0.324159    0.431321     0.005394
PD1509   PD        0.203489    0.362367    0.392075     0.005394
AU1510   AU        0.235618    0.326444    0.394266     0.007504
PD1511   PD        0.234784    0.358906    0.430088     0.005394
PD1512   PD        0.268609    0.322878    0.428484     0.005394
AU1513   AU        0.267395    0.363723    0.393265     0.007504
PD1514   PD        0.301082    0.323173    0.394066     0.005394
AU1515   AU        0.301920    0.360410    0.425943     0.007504
PD1516   PD        0.334068    0.324801    0.426258     0.005394
AU1517   AU        0.336050    0.364673    0.391729     0.007504
AU1518   AU        0.369283    0.328110    0.393066     0.007504
AU1519   AU        0.369691    0.363850    0.427822     0.007504
PD1520   PD        0.404132    0.323500    0.429178     0.005394
PD1521   PD        0.401324    0.367094    0.391825     0.005394
AU1522   AU        0.435052    0.323608    0.391995     0.007504
AU1523   AU        0.432372    0.362365    0.425645     0.007504
AU1524   AU        0.466300    0.326275    0.429633     0.007504
AU1525   AU        0.467407    0.359143    0.391681     0.007504
AU1526   AU        0.502402    0.327483    0.393550     0.007504
AU1527   AU        0.501588    0.362128    0.428057     0.007504
AU1528   AU        0.535604    0.326824    0.431795     0.007504
PD1529   PD        0.534978    0.362924    0.394227     0.005394
AU1530   AU        0.567737    0.325726    0.394001     0.007504
AU1531   AU        0.567082    0.364034    0.429229     0.007504
PD1532   PD        0.600215    0.328126    0.429348     0.005394
AU1533   AU        0.599664    0.362015    0.391473     0.007504
PD1534   PD        0.633405    0.324862    0.393082     0.005394
AU1535   AU        0.634412    0.364138    0.426763     0.007504
AU1536   AU        0.667421    0.328780    0.427136     0.007504
PD1537   PD        0.666608    0.362790    0.392799     0.005394
AU1538   AU        0.701053    0.327986    0.391912     0.007504
AU1539   AU        0.701204    0.362637    0.426698     0.007504
PD1540   PD        0.732362    0.327895    0.427343     0.005394
PD1541   PD        0.732392    0.364354    0.391074     0.005394
AU1542   AU        0.765663    0.330159    0.393039     0.007504
AU1543   AU        0.763109    0.363180    0.426615     0.007504
AU1544   AU        0.796964    0.328194    0.428873     0.007504
PD1545   PD        0.799675    0.363246    0.386559     0.005394
PD1546   PD        0.037705    0.431238    0.431128     0.005394
PD1547   PD        0.072765    0.398666    0.433252     0.005394
AU1548   AU        0.071285    0.431703    0.395604     0.007504
PD1549   PD        0.104310    0.399217    0.395757     0.005394
AU1550   AU        0.103905    0.431616    0.431668     0.007504
AU1551   AU        0.136486    0.399141    0.430918     0.007504
PD1552   PD        0.136184    0.436447    0.395140     0.005394
PD1553   PD        0.168600    0.400060    0.395599     0.005394
PD1554   PD        0.169373    0.433399    0.431631     0.005394
AU1555   AU        0.201820    0.397061    0.427824     0.007504
PD1556   PD        0.200750    0.433365    0.393032     0.005394
PD1557   PD        0.236488    0.400450    0.391783     0.005394
AU1558   AU        0.234776    0.434048    0.427862     0.007504
AU1559   AU        0.269961    0.397385    0.429940     0.007504
PD1560   PD        0.269049    0.433588    0.391897     0.005394
AU1561   AU        0.301138    0.399674    0.392537     0.007504
AU1562   AU        0.301542    0.433479    0.429606     0.007504
AU1563   AU        0.332197    0.397872    0.428831     0.007504
AU1564   AU        0.335351    0.434227    0.394204     0.007504
AU1565   AU        0.368005    0.397498    0.392656     0.007504
AU1566   AU        0.366503    0.434405    0.429277     0.007504
AU1567   AU        0.401179    0.399634    0.427241     0.007504
AU1568   AU        0.401196    0.433625    0.392979     0.007504
AU1569   AU        0.436301    0.398465    0.393312     0.007504
AU1570   AU        0.435426    0.435248    0.425202     0.007504
AU1571   AU        0.469979    0.396026    0.427438     0.007504
AU1572   AU        0.469522    0.435482    0.392553     0.007504
PD1573   PD        0.499714    0.395978    0.391459     0.005394
AU1574   AU        0.503151    0.432731    0.427889     0.007504
PD1575   PD        0.536449    0.398195    0.428287     0.005394
AU1576   AU        0.534909    0.432041    0.392358     0.007504
AU1577   AU        0.566928    0.397285    0.392780     0.007504
AU1578   AU        0.567965    0.434333    0.428322     0.007504
AU1579   AU        0.600779    0.398372    0.428634     0.007504
PD1580   PD        0.601401    0.432872    0.389393     0.005394
PD1581   PD        0.636188    0.398737    0.391172     0.005394
PD1582   PD        0.634032    0.433669    0.431140     0.005394
AU1583   AU        0.667508    0.397703    0.428587     0.007504
PD1584   PD        0.668944    0.432501    0.395431     0.005394
PD1585   PD        0.698730    0.396983    0.391963     0.005394
PD1586   PD        0.698821    0.432488    0.430002     0.005394
AU1587   AU        0.732124    0.399829    0.427807     0.007504
AU1588   AU        0.732803    0.433615    0.392068     0.007504
PD1589   PD        0.764094    0.399700    0.390477     0.005394
PD1590   PD        0.765918    0.431867    0.426523     0.005394
PD1591   PD        0.797873    0.398699    0.425796     0.005394
PD1592   PD        0.797585    0.432700    0.390288     0.005394
PD1593   PD        0.833501    0.435639    0.432813     0.005394
AU1594   AU        0.038521    0.468916    0.397554     0.007504
PD1595   PD        0.038967    0.502409    0.361188     0.005394
AU1596   AU        0.073107    0.471429    0.431927     0.007504
PD1597   PD        0.073520    0.505990    0.391824     0.005394
PD1598   PD        0.103732    0.469903    0.392516     0.005394
PD1599   PD        0.102635    0.506053    0.429497     0.005394
AU1600   AU        0.134057    0.467858    0.431280     0.007504
PD1601   PD        0.135848    0.504056    0.394437     0.005394
PD1602   PD        0.169700    0.467813    0.395264     0.005394
AU1603   AU        0.169644    0.504032    0.428737     0.007504
AU1604   AU        0.202651    0.469642    0.427289     0.007504
AU1605   AU        0.201838    0.507542    0.393072     0.007504
PD1606   PD        0.237586    0.467114    0.393967     0.005394
AU1607   AU        0.235895    0.506099    0.426795     0.007504
AU1608   AU        0.270153    0.468997    0.429332     0.007504
AU1609   AU        0.269577    0.504782    0.391795     0.007504
PD1610   PD        0.299457    0.467417    0.391289     0.005394
AU1611   AU        0.300738    0.504236    0.428020     0.007504
AU1612   AU        0.333951    0.469811    0.426661     0.007504
AU1613   AU        0.333633    0.504992    0.392952     0.007504
AU1614   AU        0.367323    0.470543    0.391141     0.007504
AU1615   AU        0.368046    0.503693    0.427704     0.007504
AU1616   AU        0.403229    0.468897    0.426848     0.007504
AU1617   AU        0.399700    0.504430    0.391710     0.007504
AU1618   AU        0.434570    0.469384    0.392559     0.007504
AU1619   AU        0.435183    0.506563    0.428991     0.007504
AU1620   AU        0.470053    0.468852    0.426422     0.007504
AU1621   AU        0.469112    0.503966    0.390024     0.007504
AU1622   AU        0.503412    0.468407    0.389544     0.007504
PD1623   PD        0.502311    0.505449    0.427573     0.005394
PD1624   PD        0.536950    0.469313    0.426915     0.005394
AU1625   AU        0.534555    0.505853    0.392866     0.007504
AU1626   AU        0.569053    0.470220    0.391864     0.007504
AU1627   AU        0.568550    0.502951    0.428892     0.007504
AU1628   AU        0.602613    0.469604    0.429108     0.007504
PD1629   PD        0.600876    0.504342    0.392196     0.005394
PD1630   PD        0.634123    0.469695    0.392467     0.005394
AU1631   AU        0.636431    0.505662    0.428991     0.007504
PD1632   PD        0.665098    0.468536    0.428151     0.005394
PD1633   PD        0.666837    0.503257    0.390624     0.005394
PD1634   PD        0.699750    0.467533    0.394539     0.005394
PD1635   PD        0.698972    0.503407    0.427108     0.005394
PD1636   PD        0.733903    0.467642    0.427065     0.005394
PD1637   PD        0.733308    0.502730    0.391119     0.005394
PD1638   PD        0.762371    0.467722    0.391121     0.005394
PD1639   PD        0.763496    0.504491    0.427534     0.005394
PD1640   PD        0.802628    0.469536    0.428288     0.005394
AU1641   AU        0.796522    0.505052    0.391760     0.007504
PD1642   PD        0.866684    0.506919    0.396247     0.005394
PD1643   PD        0.830458    0.543750    0.391219     0.005394
AU1644   AU        0.069893    0.541825    0.428029     0.007504
PD1645   PD        0.069033    0.575493    0.392193     0.005394
PD1646   PD        0.104225    0.542392    0.391524     0.005394
AU1647   AU        0.106744    0.577173    0.429090     0.007504
AU1648   AU        0.137660    0.541927    0.428631     0.007504
AU1649   AU        0.136287    0.577317    0.391739     0.007504
PD1650   PD        0.169410    0.542577    0.392610     0.005394
AU1651   AU        0.169958    0.577816    0.431724     0.007504
AU1652   AU        0.201020    0.540999    0.430051     0.007504
PD1653   PD        0.203001    0.574712    0.392700     0.005394
AU1654   AU        0.235771    0.542759    0.392744     0.007504
PD1655   PD        0.236742    0.578086    0.428897     0.005394
PD1656   PD        0.267783    0.539821    0.428706     0.005394
AU1657   AU        0.267741    0.576657    0.393069     0.007504
AU1658   AU        0.300223    0.541211    0.390893     0.007504
AU1659   AU        0.299834    0.576090    0.429883     0.007504
AU1660   AU        0.332663    0.541667    0.427385     0.007504
AU1661   AU        0.335613    0.573657    0.390503     0.007504
AU1662   AU        0.368685    0.540637    0.392962     0.007504
AU1663   AU        0.369254    0.577937    0.426693     0.007504
AU1664   AU        0.401165    0.539467    0.428458     0.007504
AU1665   AU        0.402224    0.576500    0.393780     0.007504
AU1666   AU        0.434486    0.541228    0.392634     0.007504
PD1667   PD        0.432763    0.576198    0.430615     0.005394
AU1668   AU        0.467239    0.541674    0.427458     0.007504
AU1669   AU        0.466335    0.577044    0.394133     0.007504
AU1670   AU        0.501307    0.542155    0.391347     0.007504
AU1671   AU        0.500241    0.576118    0.428496     0.007504
AU1672   AU        0.533814    0.541873    0.425971     0.007504
AU1673   AU        0.534771    0.577273    0.391638     0.007504
AU1674   AU        0.568306    0.541595    0.391359     0.007504
AU1675   AU        0.566711    0.575810    0.425600     0.007504
AU1676   AU        0.600558    0.540584    0.426801     0.007504
AU1677   AU        0.600595    0.575030    0.391829     0.007504
AU1678   AU        0.634677    0.541450    0.394220     0.007504
PD1679   PD        0.634209    0.576942    0.428134     0.005394
AU1680   AU        0.668924    0.543033    0.427699     0.007504
PD1681   PD        0.668648    0.575454    0.391117     0.005394
AU1682   AU        0.700202    0.540698    0.394368     0.007504
AU1683   AU        0.701307    0.577322    0.428084     0.007504
PD1684   PD        0.731872    0.540430    0.429820     0.005394
AU1685   AU        0.732342    0.577161    0.390389     0.007504
PD1686   PD        0.763856    0.540010    0.388271     0.005394
PD1687   PD        0.763486    0.574028    0.426176     0.005394
AU1688   AU        0.796014    0.538823    0.428720     0.007504
AU1689   AU        0.796536    0.576699    0.393043     0.007504
AU1690   AU        0.072492    0.610506    0.428806     0.007504
PD1691   PD        0.070185    0.643983    0.395943     0.005394
PD1692   PD        0.106150    0.608518    0.392206     0.005394
AU1693   AU        0.106677    0.644575    0.426626     0.007504
PD1694   PD        0.136024    0.612473    0.429028     0.005394
PD1695   PD        0.137677    0.644501    0.392167     0.005394
PD1696   PD        0.172537    0.609393    0.393100     0.005394
AU1697   AU        0.170602    0.645897    0.429595     0.007504
PD1698   PD        0.202399    0.610245    0.428909     0.005394
PD1699   PD        0.203816    0.649803    0.394346     0.005394
PD1700   PD        0.234869    0.611873    0.392113     0.005394
AU1701   AU        0.235397    0.648328    0.427495     0.007504
PD1702   PD        0.266535    0.612295    0.428154     0.005394
AU1703   AU        0.268379    0.648253    0.393211     0.007504
AU1704   AU        0.299312    0.611806    0.393520     0.007504
AU1705   AU        0.300830    0.647828    0.428181     0.007504
AU1706   AU        0.332443    0.611762    0.425919     0.007504
AU1707   AU        0.334962    0.648932    0.392930     0.007504
AU1708   AU        0.367076    0.610200    0.390496     0.007504
AU1709   AU        0.368598    0.647333    0.427616     0.007504
PD1710   PD        0.401996    0.612177    0.424356     0.005394
AU1711   AU        0.401090    0.645597    0.390890     0.007504
AU1712   AU        0.434909    0.610748    0.392376     0.007504
AU1713   AU        0.433532    0.647557    0.427660     0.007504
AU1714   AU        0.466189    0.614245    0.428320     0.007504
PD1715   PD        0.466541    0.649818    0.391338     0.005394
PD1716   PD        0.499425    0.612085    0.392709     0.005394
AU1717   AU        0.498830    0.648650    0.426441     0.007504
AU1718   AU        0.531850    0.612460    0.425394     0.007504
PD1719   PD        0.535319    0.649728    0.392110     0.005394
AU1720   AU        0.565235    0.613474    0.390776     0.007504
AU1721   AU        0.568147    0.646165    0.428535     0.007504
AU1722   AU        0.602324    0.610488    0.427037     0.007504
AU1723   AU        0.602348    0.648633    0.392499     0.007504
PD1724   PD        0.636265    0.611390    0.391087     0.005394
PD1725   PD        0.633474    0.648790    0.427645     0.005394
AU1726   AU        0.667176    0.612334    0.427259     0.007504
AU1727   AU        0.666074    0.647404    0.390563     0.007504
PD1728   PD        0.698961    0.609575    0.390565     0.005394
PD1729   PD        0.696429    0.649254    0.427399     0.005394
PD1730   PD        0.732901    0.611620    0.426368     0.005394
AU1731   AU        0.731939    0.647307    0.390031     0.007504
PD1732   PD        0.764067    0.612744    0.389512     0.005394
PD1733   PD        0.766356    0.646145    0.429901     0.005394
PD1734   PD        0.798607    0.606647    0.423974     0.005394
PD1735   PD        0.807339    0.716809    0.394334     0.005394
PD1736   PD        0.102488    0.682801    0.389785     0.005394
AU1737   AU        0.101936    0.718591    0.428445     0.007504
AU1738   AU        0.137013    0.682677    0.426842     0.007504
PD1739   PD        0.136186    0.720167    0.395238     0.005394
AU1740   AU        0.170473    0.683697    0.393714     0.007504
AU1741   AU        0.170126    0.718115    0.428625     0.007504
AU1742   AU        0.201725    0.682066    0.429791     0.007504
AU1743   AU        0.202816    0.716997    0.393652     0.007504
AU1744   AU        0.235502    0.682051    0.392530     0.007504
AU1745   AU        0.235815    0.718859    0.428538     0.007504
AU1746   AU        0.267145    0.682909    0.429266     0.007504
PD1747   PD        0.268208    0.717721    0.394488     0.005394
AU1748   AU        0.303186    0.682154    0.393177     0.007504
AU1749   AU        0.302503    0.716948    0.429060     0.007504
AU1750   AU        0.335460    0.681585    0.429343     0.007504
PD1751   PD        0.335797    0.716402    0.392572     0.005394
AU1752   AU        0.368946    0.683432    0.392000     0.007504
PD1753   PD        0.367801    0.718690    0.428210     0.005394
AU1754   AU        0.402079    0.684385    0.428012     0.007504
AU1755   AU        0.401424    0.719351    0.392463     0.007504
PD1756   PD        0.433556    0.685175    0.392294     0.005394
PD1757   PD        0.433467    0.719870    0.424289     0.005394
PD1758   PD        0.466706    0.684763    0.428015     0.005394
PD1759   PD        0.470200    0.716936    0.390103     0.005394
PD1760   PD        0.500752    0.685267    0.391841     0.005394
PD1761   PD        0.501827    0.716658    0.429107     0.005394
AU1762   AU        0.535827    0.682556    0.425413     0.007504
PD1763   PD        0.534424    0.719176    0.391873     0.005394
PD1764   PD        0.566719    0.682949    0.391975     0.005394
PD1765   PD        0.568432    0.716872    0.427714     0.005394
AU1766   AU        0.600840    0.681311    0.428046     0.007504
PD1767   PD        0.600591    0.716570    0.394587     0.005394
AU1768   AU        0.633302    0.683923    0.391281     0.007504
PD1769   PD        0.632990    0.716197    0.426181     0.005394
PD1770   PD        0.664627    0.681352    0.426443     0.005394
AU1771   AU        0.664652    0.720533    0.393165     0.007504
PD1772   PD        0.695464    0.685138    0.389979     0.005394
PD1773   PD        0.698803    0.715255    0.426813     0.005394
PD1774   PD        0.728248    0.681315    0.425262     0.005394
PD1775   PD        0.730764    0.718403    0.392494     0.005394
PD1776   PD        0.766501    0.681457    0.393166     0.005394
PD1777   PD        0.772734    0.714575    0.425004     0.005394
PD1778   PD        0.133626    0.752162    0.426039     0.005394
PD1779   PD        0.169187    0.757273    0.394960     0.005394
PD1780   PD        0.170117    0.787075    0.432006     0.005394
AU1781   AU        0.202847    0.752245    0.428699     0.007504
PD1782   PD        0.202815    0.790317    0.393104     0.005394
PD1783   PD        0.233631    0.753821    0.392338     0.005394
PD1784   PD        0.235275    0.788742    0.428308     0.005394
PD1785   PD        0.268584    0.752887    0.429245     0.005394
PD1786   PD        0.266392    0.788538    0.394623     0.005394
AU1787   AU        0.303039    0.752965    0.394189     0.007504
AU1788   AU        0.301417    0.789304    0.429946     0.007504
AU1789   AU        0.335549    0.754726    0.426941     0.007504
AU1790   AU        0.335501    0.789164    0.391606     0.007504
PD1791   PD        0.367732    0.755527    0.392702     0.005394
PD1792   PD        0.367136    0.787945    0.426069     0.005394
PD1793   PD        0.401982    0.753717    0.424271     0.005394
AU1794   AU        0.399079    0.789761    0.393116     0.007504
AU1795   AU        0.434412    0.752399    0.389305     0.007504
AU1796   AU        0.433584    0.789628    0.428864     0.007504
AU1797   AU        0.466822    0.754606    0.426741     0.007504
PD1798   PD        0.466871    0.787652    0.391076     0.005394
PD1799   PD        0.500358    0.754223    0.390833     0.005394
PD1800   PD        0.499629    0.792512    0.427152     0.005394
PD1801   PD        0.531357    0.753316    0.429762     0.005394
PD1802   PD        0.533970    0.788550    0.394118     0.005394
PD1803   PD        0.568556    0.752063    0.391223     0.005394
AU1804   AU        0.565164    0.789681    0.429149     0.007504
PD1805   PD        0.599044    0.754353    0.428027     0.005394
AU1806   AU        0.597925    0.789192    0.391858     0.007504
AU1807   AU        0.632079    0.754529    0.395200     0.007504
AU1808   AU        0.631246    0.792421    0.427521     0.007504
PD1809   PD        0.667735    0.756597    0.430799     0.005394
AU1810   AU        0.664289    0.789460    0.389583     0.007504
PD1811   PD        0.698927    0.753251    0.395923     0.005394
PD1812   PD        0.696903    0.790908    0.426245     0.005394
PD1813   PD        0.731712    0.754666    0.430832     0.005394
PD1814   PD        0.203192    0.822860    0.428068     0.005394
PD1815   PD        0.232746    0.859349    0.429408     0.005394
AU1816   AU        0.269678    0.824391    0.426803     0.007504
PD1817   PD        0.250958    0.885592    0.352395     0.005394
AU1818   AU        0.302069    0.822162    0.393486     0.007504
PD1819   PD        0.293840    0.856075    0.425588     0.005394
PD1820   PD        0.333341    0.824657    0.428234     0.005394
AU1821   AU        0.336000    0.858002    0.396161     0.007504
PD1822   PD        0.366721    0.824446    0.393934     0.005394
AU1823   AU        0.369559    0.858541    0.428492     0.007504
PD1824   PD        0.401794    0.823724    0.426580     0.005394
AU1825   AU        0.403886    0.859816    0.390201     0.007504
AU1826   AU        0.434058    0.823155    0.392328     0.007504
AU1827   AU        0.433372    0.858231    0.426723     0.007504
AU1828   AU        0.466457    0.825745    0.427228     0.007504
PD1829   PD        0.467047    0.859144    0.391098     0.005394
PD1830   PD        0.502037    0.824337    0.395673     0.005394
AU1831   AU        0.500941    0.858858    0.429838     0.007504
AU1832   AU        0.533381    0.826192    0.430001     0.007504
PD1833   PD        0.532969    0.858437    0.393999     0.005394
AU1834   AU        0.564260    0.823158    0.391299     0.007504
PD1835   PD        0.568614    0.862506    0.428457     0.005394
AU1836   AU        0.596254    0.824040    0.429731     0.007504
PD1837   PD        0.598794    0.857001    0.392506     0.005394
PD1838   PD        0.630892    0.823262    0.391960     0.005394
PD1839   PD        0.673105    0.822023    0.429908     0.005394
AU1840   AU        0.402484    0.894180    0.426047     0.007504
PD1841   PD        0.435092    0.897896    0.393380     0.005394
AU1842   AU        0.466095    0.894024    0.426597     0.007504
PD1843   PD        0.228751    0.040849    0.455538     0.005394
PD1844   PD        0.301455    0.076182    0.498563     0.005394
PD1845   PD        0.340287    0.074957    0.463899     0.005394
PD1846   PD        0.342793    0.000714    0.537611     0.005394
AU1847   AU        0.369002    0.077895    0.500906     0.007504
PD1848   PD        0.402130    0.044586    0.501397     0.005394
AU1849   AU        0.402088    0.079087    0.467260     0.007504
AU1850   AU        0.434581    0.043068    0.463907     0.007504
PD1851   PD        0.438456    0.077193    0.503994     0.005394
PD1852   PD        0.505264    0.004618    0.493945     0.005394
PD1853   PD        0.468989    0.078766    0.463301     0.005394
AU1854   AU        0.496714    0.041516    0.463876     0.007504
PD1855   PD        0.502344    0.082033    0.504000     0.005394
AU1856   AU        0.534226    0.077180    0.467277     0.007504
AU1857   AU        0.568926    0.078071    0.501698     0.007504
AU1858   AU        0.601939    0.079332    0.464629     0.007504
AU1859   AU        0.173076    0.146851    0.501654     0.007504
PD1860   PD        0.204462    0.114741    0.499321     0.005394
AU1861   AU        0.203203    0.148231    0.466029     0.007504
AU1862   AU        0.237237    0.113532    0.464853     0.007504
AU1863   AU        0.237763    0.147199    0.500838     0.007504
PD1864   PD        0.272154    0.113433    0.500278     0.005394
AU1865   AU        0.269980    0.150845    0.465336     0.007504
PD1866   PD        0.305258    0.112363    0.464277     0.005394
PD1867   PD        0.302950    0.146670    0.499965     0.005394
PD1868   PD        0.334540    0.112514    0.502764     0.005394
PD1869   PD        0.337006    0.148563    0.465685     0.005394
PD1870   PD        0.368127    0.114873    0.466696     0.005394
AU1871   AU        0.369278    0.147701    0.500625     0.007504
PD1872   PD        0.403143    0.111576    0.502300     0.005394
AU1873   AU        0.402794    0.149591    0.466861     0.007504
PD1874   PD        0.433612    0.115678    0.467029     0.005394
AU1875   AU        0.436989    0.147075    0.502312     0.007504
PD1876   PD        0.469168    0.114670    0.501133     0.005394
PD1877   PD        0.467933    0.147733    0.462542     0.005394
AU1878   AU        0.503300    0.115011    0.466421     0.007504
PD1879   PD        0.503141    0.145786    0.502759     0.005394
PD1880   PD        0.534960    0.113327    0.500688     0.005394
PD1881   PD        0.535753    0.147796    0.464158     0.005394
PD1882   PD        0.566918    0.114241    0.467065     0.005394
AU1883   AU        0.568348    0.150737    0.501555     0.007504
PD1884   PD        0.600285    0.113362    0.501288     0.005394
PD1885   PD        0.599857    0.146168    0.465586     0.005394
PD1886   PD        0.635222    0.110868    0.467108     0.005394
AU1887   AU        0.633352    0.149671    0.501426     0.007504
PD1888   PD        0.665194    0.115151    0.502357     0.005394
PD1889   PD        0.668979    0.147976    0.458420     0.005394
PD1890   PD        0.735296    0.152544    0.458686     0.005394
PD1891   PD        0.103157    0.217650    0.501515     0.005394
AU1892   AU        0.135948    0.183428    0.502503     0.007504
PD1893   PD        0.138603    0.220323    0.469386     0.005394
PD1894   PD        0.170254    0.184367    0.467929     0.005394
PD1895   PD        0.170107    0.221080    0.503091     0.005394
AU1896   AU        0.205412    0.184828    0.499089     0.007504
PD1897   PD        0.202927    0.220317    0.468166     0.005394
PD1898   PD        0.238780    0.186587    0.466091     0.005394
PD1899   PD        0.234996    0.219769    0.503522     0.005394
AU1900   AU        0.269747    0.183985    0.500179     0.007504
AU1901   AU        0.268981    0.218817    0.466412     0.007504
PD1902   PD        0.303926    0.184089    0.468201     0.005394
AU1903   AU        0.301849    0.219541    0.501055     0.007504
AU1904   AU        0.334771    0.184765    0.501992     0.007504
PD1905   PD        0.336622    0.218658    0.463272     0.005394
AU1906   AU        0.368768    0.183227    0.466140     0.007504
AU1907   AU        0.370220    0.218093    0.501578     0.007504
AU1908   AU        0.402128    0.182713    0.499889     0.007504
AU1909   AU        0.403966    0.217046    0.466572     0.007504
PD1910   PD        0.438413    0.182729    0.466939     0.005394
AU1911   AU        0.437562    0.218838    0.502079     0.007504
AU1912   AU        0.468091    0.180416    0.501590     0.007504
AU1913   AU        0.469033    0.218070    0.466436     0.007504
PD1914   PD        0.502307    0.183035    0.465210     0.005394
PD1915   PD        0.501397    0.216670    0.501790     0.005394
PD1916   PD        0.534087    0.182504    0.502053     0.005394
PD1917   PD        0.536926    0.220761    0.462168     0.005394
PD1918   PD        0.569385    0.181332    0.465410     0.005394
PD1919   PD        0.568275    0.217274    0.499083     0.005394
AU1920   AU        0.601357    0.184806    0.501355     0.007504
PD1921   PD        0.600947    0.217116    0.464078     0.005394
AU1922   AU        0.635411    0.183062    0.465310     0.007504
PD1923   PD        0.634537    0.218320    0.500210     0.005394
PD1924   PD        0.666032    0.183064    0.500933     0.005394
PD1925   PD        0.668440    0.221715    0.462224     0.005394
PD1926   PD        0.698950    0.186608    0.465407     0.005394
PD1927   PD        0.701754    0.219272    0.500895     0.005394
PD1928   PD        0.770749    0.149883    0.504318     0.005394
PD1929   PD        0.731935    0.219987    0.465512     0.005394
PD1930   PD        0.768853    0.222003    0.497884     0.005394
PD1931   PD        0.071973    0.294801    0.466222     0.005394
PD1932   PD        0.104537    0.255369    0.466181     0.005394
PD1933   PD        0.104112    0.290182    0.501535     0.005394
PD1934   PD        0.136276    0.254819    0.503340     0.005394
PD1935   PD        0.137639    0.291663    0.465877     0.005394
PD1936   PD        0.171220    0.254526    0.466306     0.005394
AU1937   AU        0.170954    0.290491    0.502259     0.007504
PD1938   PD        0.202253    0.255421    0.504844     0.005394
AU1939   AU        0.202208    0.286518    0.466641     0.007504
PD1940   PD        0.234768    0.251898    0.464736     0.005394
AU1941   AU        0.233719    0.289384    0.501664     0.007504
AU1942   AU        0.269444    0.255640    0.499474     0.007504
AU1943   AU        0.270403    0.288489    0.464684     0.007504
PD1944   PD        0.303320    0.255315    0.465319     0.005394
AU1945   AU        0.302900    0.290067    0.499844     0.007504
PD1946   PD        0.335912    0.253934    0.501491     0.005394
AU1947   AU        0.336869    0.289832    0.464858     0.007504
AU1948   AU        0.369284    0.251824    0.465337     0.007504
AU1949   AU        0.369673    0.289879    0.500065     0.007504
AU1950   AU        0.401271    0.251846    0.500032     0.007504
AU1951   AU        0.400431    0.287426    0.464521     0.007504
AU1952   AU        0.437396    0.251168    0.468218     0.007504
AU1953   AU        0.434218    0.286832    0.501249     0.007504
AU1954   AU        0.470517    0.255225    0.501895     0.007504
AU1955   AU        0.468824    0.289943    0.464654     0.007504
PD1956   PD        0.500351    0.254599    0.463911     0.005394
AU1957   AU        0.501986    0.292154    0.501250     0.007504
AU1958   AU        0.535030    0.253649    0.500143     0.007504
PD1959   PD        0.535765    0.289472    0.466426     0.005394
AU1960   AU        0.568961    0.253281    0.462210     0.007504
PD1961   PD        0.572184    0.290772    0.502135     0.005394
PD1962   PD        0.604413    0.254920    0.499572     0.005394
PD1963   PD        0.602841    0.289762    0.465009     0.005394
PD1964   PD        0.632195    0.254086    0.460446     0.005394
PD1965   PD        0.636268    0.286873    0.500259     0.005394
PD1966   PD        0.668493    0.251661    0.503132     0.005394
PD1967   PD        0.668019    0.293042    0.464674     0.005394
PD1968   PD        0.701672    0.256703    0.460427     0.005394
PD1969   PD        0.701333    0.293363    0.500353     0.005394
PD1970   PD        0.736296    0.260441    0.497847     0.005394
PD1971   PD        0.732506    0.293970    0.461633     0.005394
PD1972   PD        0.764735    0.256532    0.461435     0.005394
PD1973   PD        0.763783    0.292594    0.502423     0.005394
PD1974   PD        0.832457    0.291864    0.425190     0.005394
PD1975   PD        0.072586    0.328835    0.500968     0.005394
PD1976   PD        0.070985    0.364472    0.466365     0.005394
PD1977   PD        0.104807    0.328163    0.465085     0.005394
AU1978   AU        0.105019    0.363364    0.502120     0.007504
PD1979   PD        0.136096    0.325270    0.501173     0.005394
PD1980   PD        0.136810    0.364191    0.467770     0.005394
PD1981   PD        0.170896    0.322863    0.467311     0.005394
PD1982   PD        0.170618    0.360055    0.500919     0.005394
AU1983   AU        0.205120    0.325575    0.500347     0.007504
PD1984   PD        0.203009    0.363343    0.464788     0.005394
PD1985   PD        0.233950    0.323166    0.464520     0.005394
AU1986   AU        0.235469    0.360176    0.500900     0.007504
PD1987   PD        0.267807    0.324611    0.498353     0.005394
PD1988   PD        0.267497    0.361690    0.462606     0.005394
AU1989   AU        0.304300    0.324398    0.465249     0.007504
AU1990   AU        0.303648    0.361587    0.500136     0.007504
AU1991   AU        0.336351    0.327191    0.500948     0.007504
PD1992   PD        0.337853    0.362230    0.462479     0.005394
PD1993   PD        0.368632    0.325818    0.461487     0.005394
AU1994   AU        0.369079    0.361611    0.500988     0.007504
AU1995   AU        0.402987    0.324714    0.499335     0.007504
PD1996   PD        0.402996    0.361362    0.462013     0.005394
PD1997   PD        0.435590    0.327094    0.462790     0.005394
PD1998   PD        0.434694    0.365146    0.500461     0.005394
PD1999   PD        0.467053    0.327370    0.498061     0.005394
PD2000   PD        0.465740    0.364295    0.461645     0.005394
AU2001   AU        0.499398    0.327439    0.463232     0.007504
AU2002   AU        0.499087    0.361045    0.500657     0.007504
PD2003   PD        0.536958    0.324187    0.499138     0.005394
AU2004   AU        0.535487    0.361464    0.466673     0.007504
AU2005   AU        0.569252    0.325795    0.465008     0.007504
AU2006   AU        0.568692    0.362237    0.502080     0.007504
AU2007   AU        0.603718    0.323811    0.501598     0.007504
AU2008   AU        0.601455    0.363204    0.464371     0.007504
AU2009   AU        0.633064    0.328056    0.463018     0.007504
AU2010   AU        0.632166    0.362694    0.501206     0.007504
PD2011   PD        0.664911    0.327079    0.498687     0.005394
AU2012   AU        0.666651    0.364022    0.463301     0.007504
PD2013   PD        0.700957    0.328924    0.462354     0.005394
AU2014   AU        0.698944    0.362105    0.500111     0.007504
PD2015   PD        0.733508    0.327352    0.494867     0.005394
PD2016   PD        0.732655    0.365376    0.462848     0.005394
PD2017   PD        0.765164    0.327181    0.462596     0.005394
AU2018   AU        0.765760    0.361493    0.500098     0.007504
PD2019   PD        0.805231    0.335376    0.510909     0.005394
PD2020   PD        0.795587    0.364493    0.463974     0.005394
PD2021   PD        0.039163    0.401668    0.467921     0.005394
PD2022   PD        0.003474    0.438557    0.464802     0.005394
AU2023   AU        0.073784    0.400012    0.499720     0.007504
AU2024   AU        0.072442    0.433098    0.464522     0.007504
AU2025   AU        0.105801    0.396999    0.465603     0.007504
AU2026   AU        0.105487    0.434135    0.499394     0.007504
AU2027   AU        0.137096    0.398019    0.501631     0.007504
PD2028   PD        0.136858    0.431657    0.467800     0.005394
PD2029   PD        0.170827    0.398070    0.465616     0.005394
AU2030   AU        0.170970    0.433730    0.500432     0.007504
PD2031   PD        0.202438    0.395285    0.503076     0.005394
PD2032   PD        0.201884    0.433462    0.464523     0.005394
AU2033   AU        0.235508    0.399012    0.463382     0.007504
PD2034   PD        0.234422    0.432347    0.501134     0.005394
PD2035   PD        0.264647    0.397576    0.498959     0.005394
AU2036   AU        0.267337    0.433447    0.463225     0.007504
AU2037   AU        0.300637    0.398324    0.466073     0.007504
AU2038   AU        0.299504    0.433878    0.498958     0.007504
AU2039   AU        0.333771    0.400670    0.501555     0.007504
AU2040   AU        0.333798    0.433065    0.464151     0.007504
AU2041   AU        0.369093    0.399179    0.464973     0.007504
AU2042   AU        0.366826    0.434330    0.500233     0.007504
AU2043   AU        0.402704    0.399476    0.499140     0.007504
AU2044   AU        0.400180    0.435050    0.463491     0.007504
AU2045   AU        0.434689    0.400683    0.460858     0.007504
AU2046   AU        0.433706    0.434442    0.497860     0.007504
AU2047   AU        0.466659    0.399726    0.498758     0.007504
AU2048   AU        0.469575    0.434128    0.461401     0.007504
AU2049   AU        0.502691    0.395178    0.465669     0.007504
AU2050   AU        0.501172    0.434035    0.501440     0.007504
PD2051   PD        0.535663    0.397510    0.500616     0.005394
AU2052   AU        0.534238    0.432188    0.465089     0.007504
AU2053   AU        0.568151    0.397584    0.463809     0.007504
AU2054   AU        0.568413    0.432233    0.501006     0.007504
AU2055   AU        0.601873    0.397102    0.501033     0.007504
AU2056   AU        0.600931    0.435640    0.467531     0.007504
AU2057   AU        0.632472    0.397699    0.465149     0.007504
AU2058   AU        0.634799    0.432860    0.497961     0.007504
AU2059   AU        0.666001    0.395921    0.500395     0.007504
AU2060   AU        0.666025    0.432569    0.463910     0.007504
AU2061   AU        0.700751    0.397921    0.462779     0.007504
AU2062   AU        0.699228    0.432697    0.499127     0.007504
AU2063   AU        0.733075    0.396791    0.500558     0.007504
PD2064   PD        0.733357    0.435211    0.464301     0.005394
PD2065   PD        0.765331    0.398842    0.464094     0.005394
PD2066   PD        0.763138    0.433934    0.499634     0.005394
AU2067   AU        0.796633    0.399857    0.500853     0.007504
PD2068   PD        0.798346    0.434604    0.464158     0.005394
PD2069   PD        0.826353    0.398251    0.463272     0.005394
PD2070   PD        0.830538    0.431154    0.498604     0.005394
AU2071   AU        0.038811    0.468428    0.465602     0.007504
PD2072   PD        0.039671    0.505674    0.500674     0.005394
AU2073   AU        0.071811    0.466473    0.500728     0.007504
PD2074   PD        0.073684    0.505554    0.466157     0.005394
AU2075   AU        0.105443    0.470757    0.464604     0.007504
AU2076   AU        0.103455    0.503788    0.499687     0.007504
AU2077   AU        0.138554    0.469428    0.500164     0.007504
AU2078   AU        0.136979    0.508254    0.464407     0.007504
PD2079   PD        0.167628    0.470407    0.464507     0.005394
AU2080   AU        0.168145    0.507861    0.499453     0.007504
AU2081   AU        0.200812    0.469768    0.499249     0.007504
AU2082   AU        0.202557    0.507319    0.466599     0.007504
PD2083   PD        0.233666    0.469005    0.462052     0.005394
AU2084   AU        0.236258    0.505269    0.499324     0.007504
AU2085   AU        0.266563    0.469759    0.498450     0.007504
AU2086   AU        0.267549    0.504609    0.463013     0.007504
AU2087   AU        0.300746    0.468631    0.465399     0.007504
AU2088   AU        0.301252    0.503002    0.500781     0.007504
AU2089   AU        0.334992    0.468991    0.498878     0.007504
AU2090   AU        0.333358    0.502988    0.462251     0.007504
AU2091   AU        0.368156    0.469711    0.463484     0.007504
AU2092   AU        0.367486    0.504138    0.498309     0.007504
AU2093   AU        0.401899    0.470155    0.501555     0.007504
AU2094   AU        0.401278    0.505697    0.465736     0.007504
AU2095   AU        0.435222    0.470742    0.463557     0.007504
AU2096   AU        0.434289    0.506712    0.498877     0.007504
AU2097   AU        0.468102    0.469219    0.499092     0.007504
AU2098   AU        0.469787    0.505143    0.463438     0.007504
PD2099   PD        0.505593    0.467717    0.463558     0.005394
AU2100   AU        0.500866    0.504910    0.501031     0.007504
AU2101   AU        0.534499    0.469595    0.501610     0.007504
PD2102   PD        0.534496    0.506165    0.465720     0.005394
AU2103   AU        0.570127    0.468835    0.464507     0.007504
AU2104   AU        0.566035    0.501952    0.502504     0.007504
PD2105   PD        0.602021    0.468642    0.498828     0.005394
PD2106   PD        0.602455    0.504682    0.466036     0.005394
AU2107   AU        0.636091    0.469378    0.466073     0.007504
PD2108   PD        0.634184    0.506228    0.499439     0.005394
PD2109   PD        0.669047    0.468734    0.498953     0.005394
PD2110   PD        0.667989    0.506632    0.461173     0.005394
AU2111   AU        0.697430    0.466807    0.463121     0.007504
PD2112   PD        0.699806    0.502899    0.498923     0.005394
AU2113   AU        0.731827    0.468619    0.500187     0.007504
AU2114   AU        0.732370    0.501839    0.461999     0.007504
AU2115   AU        0.767215    0.467180    0.464729     0.007504
AU2116   AU        0.764859    0.503212    0.498019     0.007504
PD2117   PD        0.797088    0.466445    0.500276     0.005394
PD2118   PD        0.797836    0.504176    0.466351     0.005394
PD2119   PD        0.832414    0.471762    0.466162     0.005394
PD2120   PD        0.829029    0.503959    0.500058     0.005394
PD2121   PD        0.000667    0.560181    0.381729     0.005394
PD2122   PD        0.072191    0.542287    0.501956     0.005394
AU2123   AU        0.072055    0.574725    0.464925     0.007504
AU2124   AU        0.104806    0.541375    0.463321     0.007504
AU2125   AU        0.104885    0.577630    0.500942     0.007504
AU2126   AU        0.135298    0.540394    0.501606     0.007504
AU2127   AU        0.137615    0.576982    0.465616     0.007504
AU2128   AU        0.170088    0.541677    0.465644     0.007504
AU2129   AU        0.167217    0.575699    0.501148     0.007504
AU2130   AU        0.203170    0.542217    0.501858     0.007504
AU2131   AU        0.202024    0.577352    0.466822     0.007504
AU2132   AU        0.235016    0.541730    0.464418     0.007504
AU2133   AU        0.235801    0.576095    0.498414     0.007504
AU2134   AU        0.268136    0.540247    0.499897     0.007504
AU2135   AU        0.267915    0.574842    0.463238     0.007504
PD2136   PD        0.300949    0.540283    0.466163     0.005394
AU2137   AU        0.299846    0.576269    0.499768     0.007504
AU2138   AU        0.335897    0.542375    0.500034     0.007504
AU2139   AU        0.335143    0.577493    0.462648     0.007504
PD2140   PD        0.366124    0.538621    0.465237     0.005394
AU2141   AU        0.368029    0.575436    0.499564     0.007504
AU2142   AU        0.402488    0.542574    0.499446     0.007504
AU2143   AU        0.399401    0.579345    0.464060     0.007504
AU2144   AU        0.435365    0.540536    0.464209     0.007504
AU2145   AU        0.434441    0.577103    0.500268     0.007504
AU2146   AU        0.467729    0.539729    0.500407     0.007504
AU2147   AU        0.466379    0.577472    0.465525     0.007504
AU2148   AU        0.500834    0.540584    0.464096     0.007504
AU2149   AU        0.503031    0.576078    0.500308     0.007504
PD2150   PD        0.536411    0.541751    0.497713     0.005394
AU2151   AU        0.535540    0.577700    0.462030     0.007504
AU2152   AU        0.568277    0.542393    0.460706     0.007504
PD2153   PD        0.567407    0.575438    0.496843     0.005394
AU2154   AU        0.598952    0.539570    0.500608     0.007504
AU2155   AU        0.599975    0.576510    0.463959     0.007504
AU2156   AU        0.633874    0.539556    0.463599     0.007504
AU2157   AU        0.632764    0.576022    0.499877     0.007504
PD2158   PD        0.666915    0.538851    0.499043     0.005394
AU2159   AU        0.665093    0.575811    0.462717     0.007504
AU2160   AU        0.700844    0.539228    0.463995     0.007504
AU2161   AU        0.698283    0.573521    0.501056     0.007504
PD2162   PD        0.733959    0.539526    0.498655     0.005394
PD2163   PD        0.731900    0.575341    0.465245     0.005394
PD2164   PD        0.763646    0.540328    0.461986     0.005394
PD2165   PD        0.764731    0.575444    0.499877     0.005394
AU2166   AU        0.798097    0.540805    0.499725     0.007504
PD2167   PD        0.838637    0.607324    0.463241     0.005394
PD2168   PD        0.867821    0.507266    0.471230     0.005394
AU2169   AU        0.073454    0.610957    0.499639     0.007504
PD2170   PD        0.071402    0.644556    0.464011     0.005394
AU2171   AU        0.103117    0.610901    0.464360     0.007504
PD2172   PD        0.103907    0.646161    0.497122     0.005394
AU2173   AU        0.136301    0.613715    0.498702     0.007504
AU2174   AU        0.136579    0.646813    0.463045     0.007504
AU2175   AU        0.169701    0.611533    0.464910     0.007504
AU2176   AU        0.170476    0.645990    0.499393     0.007504
PD2177   PD        0.200769    0.611224    0.501816     0.005394
AU2178   AU        0.202894    0.646048    0.464193     0.007504
PD2179   PD        0.234150    0.611434    0.466053     0.005394
AU2180   AU        0.236389    0.644680    0.497346     0.007504
AU2181   AU        0.269256    0.611745    0.499795     0.007504
AU2182   AU        0.268320    0.646139    0.462157     0.007504
AU2183   AU        0.300063    0.612138    0.462684     0.007504
PD2184   PD        0.300201    0.648261    0.498594     0.005394
AU2185   AU        0.333405    0.612617    0.498763     0.007504
AU2186   AU        0.334953    0.646299    0.463196     0.007504
AU2187   AU        0.366743    0.612357    0.463097     0.007504
PD2188   PD        0.369157    0.648957    0.496944     0.005394
AU2189   AU        0.399804    0.613640    0.500635     0.007504
AU2190   AU        0.402002    0.647777    0.463355     0.007504
PD2191   PD        0.431861    0.611371    0.465380     0.005394
AU2192   AU        0.435487    0.646161    0.501032     0.007504
AU2193   AU        0.470159    0.612353    0.498170     0.007504
AU2194   AU        0.464704    0.649314    0.464691     0.007504
AU2195   AU        0.502031    0.614480    0.463336     0.007504
AU2196   AU        0.500115    0.648026    0.500345     0.007504
AU2197   AU        0.531802    0.612129    0.499306     0.007504
AU2198   AU        0.534360    0.647066    0.464020     0.007504
AU2199   AU        0.568418    0.613308    0.464461     0.007504
AU2200   AU        0.567248    0.645607    0.499819     0.007504
PD2201   PD        0.601286    0.610800    0.501728     0.005394
AU2202   AU        0.600839    0.648233    0.462960     0.007504
AU2203   AU        0.633163    0.611724    0.463030     0.007504
AU2204   AU        0.633919    0.645826    0.498758     0.007504
PD2205   PD        0.665015    0.610839    0.501840     0.005394
PD2206   PD        0.666923    0.647674    0.462410     0.005394
PD2207   PD        0.700999    0.611594    0.464597     0.005394
PD2208   PD        0.698403    0.649577    0.499672     0.005394
PD2209   PD        0.731901    0.609782    0.499694     0.005394
PD2210   PD        0.733208    0.645460    0.461307     0.005394
PD2211   PD        0.767577    0.609316    0.464098     0.005394
PD2212   PD        0.765703    0.646308    0.496683     0.005394
PD2213   PD        0.800245    0.609642    0.498584     0.005394
PD2214   PD        0.804878    0.640319    0.461900     0.005394
PD2215   PD        0.104846    0.685210    0.461789     0.005394
AU2216   AU        0.105355    0.721483    0.498158     0.007504
AU2217   AU        0.137167    0.682905    0.496463     0.007504
PD2218   PD        0.138014    0.718586    0.462213     0.005394
AU2219   AU        0.170214    0.681075    0.463732     0.007504
AU2220   AU        0.168912    0.717070    0.499048     0.007504
PD2221   PD        0.202282    0.680307    0.497760     0.005394
AU2222   AU        0.202155    0.718247    0.465811     0.007504
AU2223   AU        0.236526    0.684092    0.463915     0.007504
PD2224   PD        0.236644    0.717608    0.501288     0.005394
AU2225   AU        0.268647    0.681144    0.499961     0.007504
AU2226   AU        0.267170    0.720054    0.462900     0.007504
AU2227   AU        0.300986    0.683194    0.463324     0.007504
AU2228   AU        0.302233    0.718676    0.499912     0.007504
AU2229   AU        0.333587    0.681314    0.497884     0.007504
AU2230   AU        0.335984    0.718281    0.463992     0.007504
AU2231   AU        0.367553    0.682359    0.462757     0.007504
PD2232   PD        0.369106    0.719591    0.497363     0.005394
AU2233   AU        0.400982    0.682468    0.498761     0.007504
AU2234   AU        0.401146    0.719642    0.462129     0.007504
PD2235   PD        0.435054    0.684454    0.466347     0.005394
PD2236   PD        0.432552    0.715783    0.497383     0.005394
PD2237   PD        0.466968    0.682921    0.500896     0.005394
PD2238   PD        0.466043    0.719732    0.463502     0.005394
AU2239   AU        0.501402    0.681146    0.462800     0.007504
AU2240   AU        0.501455    0.716643    0.497656     0.007504
AU2241   AU        0.534885    0.681070    0.499102     0.007504
AU2242   AU        0.535135    0.716220    0.464631     0.007504
PD2243   PD        0.567037    0.681632    0.461849     0.005394
PD2244   PD        0.568045    0.716153    0.497140     0.005394
PD2245   PD        0.598485    0.684544    0.497888     0.005394
PD2246   PD        0.596677    0.717723    0.462970     0.005394
PD2247   PD        0.632224    0.682331    0.464598     0.005394
AU2248   AU        0.631191    0.718015    0.497977     0.007504
AU2249   AU        0.664634    0.680881    0.500455     0.007504
AU2250   AU        0.665364    0.716156    0.463791     0.007504
PD2251   PD        0.698337    0.683009    0.464764     0.005394
PD2252   PD        0.698123    0.718248    0.498981     0.005394
PD2253   PD        0.731503    0.685980    0.504582     0.005394
PD2254   PD        0.732087    0.718298    0.463505     0.005394
PD2255   PD        0.763571    0.683810    0.457848     0.005394
PD2256   PD        0.760096    0.716189    0.501609     0.005394
AU2257   AU        0.138435    0.754104    0.500153     0.007504
PD2258   PD        0.167926    0.755479    0.461178     0.005394
PD2259   PD        0.166542    0.859351    0.503959     0.005394
PD2260   PD        0.202216    0.754973    0.499103     0.005394
AU2261   AU        0.202311    0.787723    0.465896     0.007504
AU2262   AU        0.234887    0.755550    0.464026     0.007504
PD2263   PD        0.235532    0.788398    0.499018     0.005394
AU2264   AU        0.269154    0.753398    0.498402     0.007504
PD2265   PD        0.268603    0.789436    0.462877     0.005394
AU2266   AU        0.302939    0.752178    0.461382     0.007504
AU2267   AU        0.300945    0.786641    0.497145     0.007504
AU2268   AU        0.335812    0.753408    0.499330     0.007504
PD2269   PD        0.335574    0.789897    0.462467     0.005394
AU2270   AU        0.367400    0.753505    0.463079     0.007504
AU2271   AU        0.368213    0.788025    0.501096     0.007504
PD2272   PD        0.401858    0.754879    0.497905     0.005394
PD2273   PD        0.400833    0.789218    0.458904     0.005394
PD2274   PD        0.432789    0.756158    0.463546     0.005394
PD2275   PD        0.435256    0.787593    0.499923     0.005394
PD2276   PD        0.466968    0.752887    0.500251     0.005394
PD2277   PD        0.466961    0.789182    0.464175     0.005394
PD2278   PD        0.503353    0.753337    0.463163     0.005394
PD2279   PD        0.501581    0.788094    0.498188     0.005394
PD2280   PD        0.533224    0.752438    0.498463     0.005394
PD2281   PD        0.533095    0.792765    0.464873     0.005394
PD2282   PD        0.565640    0.752888    0.460615     0.005394
AU2283   AU        0.564791    0.788079    0.498042     0.007504
AU2284   AU        0.597935    0.753144    0.496357     0.007504
AU2285   AU        0.597899    0.787550    0.462851     0.007504
PD2286   PD        0.630446    0.753618    0.462475     0.005394
PD2287   PD        0.628707    0.790302    0.497679     0.005394
PD2288   PD        0.661848    0.753570    0.501397     0.005394
PD2289   PD        0.662881    0.787563    0.466324     0.005394
PD2290   PD        0.692928    0.750654    0.461898     0.005394
PD2291   PD        0.712951    0.784865    0.491277     0.005394
PD2292   PD        0.733447    0.751302    0.497768     0.005394
PD2293   PD        0.194939    0.858169    0.464002     0.005394
PD2294   PD        0.233337    0.821250    0.464650     0.005394
PD2295   PD        0.268705    0.827441    0.496812     0.005394
PD2296   PD        0.268164    0.859385    0.460623     0.005394
PD2297   PD        0.299896    0.825850    0.465008     0.005394
PD2298   PD        0.302893    0.861813    0.498115     0.005394
PD2299   PD        0.332908    0.822695    0.500118     0.005394
AU2300   AU        0.335644    0.858060    0.463041     0.007504
AU2301   AU        0.369283    0.823781    0.464569     0.007504
AU2302   AU        0.368621    0.859755    0.501579     0.007504
AU2303   AU        0.403212    0.823820    0.498399     0.007504
AU2304   AU        0.402812    0.858680    0.463149     0.007504
AU2305   AU        0.434177    0.822644    0.462997     0.007504
PD2306   PD        0.435001    0.859703    0.500595     0.005394
AU2307   AU        0.466461    0.824614    0.498686     0.007504
AU2308   AU        0.466495    0.859938    0.466364     0.007504
AU2309   AU        0.500215    0.825370    0.465727     0.007504
AU2310   AU        0.500755    0.859437    0.500909     0.007504
PD2311   PD        0.533383    0.822573    0.502349     0.005394
PD2312   PD        0.534628    0.863127    0.463679     0.005394
PD2313   PD        0.564339    0.827003    0.464318     0.005394
PD2314   PD        0.565010    0.860227    0.499605     0.005394
AU2315   AU        0.596837    0.822499    0.499824     0.007504
PD2316   PD        0.597916    0.861515    0.465659     0.005394
PD2317   PD        0.630250    0.828528    0.463941     0.005394
PD2318   PD        0.667773    0.890491    0.514675     0.005394
AU2319   AU        0.371225    0.893916    0.462826     0.007504
PD2320   PD        0.404140    0.893040    0.499733     0.005394
AU2321   AU        0.434704    0.893014    0.463390     0.007504
PD2322   PD        0.466613    0.896669    0.502240     0.005394
PD2323   PD        0.497787    0.900998    0.463818     0.005394
PD2324   PD        0.269527    0.076343    0.534675     0.005394
PD2325   PD        0.301086    0.078151    0.568923     0.005394
AU2326   AU        0.338765    0.075404    0.539082     0.007504
PD2327   PD        0.372295    0.075535    0.571359     0.005394
AU2328   AU        0.404749    0.078904    0.536329     0.007504
PD2329   PD        0.436352    0.043297    0.535838     0.005394
AU2330   AU        0.436778    0.077495    0.574728     0.007504
AU2331   AU        0.469569    0.076766    0.538532     0.007504
PD2332   PD        0.504962    0.079634    0.571415     0.005394
PD2333   PD        0.538383    0.077499    0.538133     0.005394
PD2334   PD        0.569196    0.077036    0.576176     0.005394
PD2335   PD        0.601453    0.076728    0.538637     0.005394
PD2336   PD        0.205222    0.149137    0.535004     0.005394
PD2337   PD        0.237550    0.110532    0.534508     0.005394
PD2338   PD        0.238435    0.148102    0.570366     0.005394
AU2339   AU        0.271951    0.112446    0.568813     0.007504
PD2340   PD        0.272442    0.149404    0.533292     0.005394
AU2341   AU        0.303808    0.111828    0.536385     0.007504
AU2342   AU        0.303626    0.150112    0.569326     0.007504
PD2343   PD        0.335026    0.114054    0.571730     0.005394
AU2344   AU        0.333668    0.147644    0.536260     0.007504
PD2345   PD        0.369309    0.113859    0.534020     0.005394
AU2346   AU        0.369334    0.147020    0.569589     0.007504
AU2347   AU        0.401566    0.113045    0.571327     0.007504
AU2348   AU        0.402346    0.148637    0.535739     0.007504
AU2349   AU        0.436302    0.113353    0.540230     0.007504
PD2350   PD        0.434158    0.150854    0.573266     0.005394
AU2351   AU        0.470152    0.113942    0.574340     0.007504
AU2352   AU        0.470189    0.147917    0.538922     0.007504
PD2353   PD        0.502249    0.113641    0.540497     0.005394
PD2354   PD        0.504588    0.148717    0.572297     0.005394
PD2355   PD        0.535208    0.113727    0.574657     0.005394
AU2356   AU        0.534614    0.148096    0.537479     0.007504
PD2357   PD        0.567284    0.114734    0.537478     0.005394
PD2358   PD        0.568932    0.148061    0.572942     0.005394
AU2359   AU        0.600348    0.113829    0.570548     0.007504
AU2360   AU        0.599837    0.147888    0.535777     0.007504
AU2361   AU        0.633744    0.115016    0.535182     0.007504
PD2362   PD        0.632382    0.148895    0.570557     0.005394
PD2363   PD        0.667841    0.148247    0.535694     0.005394
AU2364   AU        0.137616    0.217412    0.535754     0.007504
AU2365   AU        0.169927    0.182236    0.536526     0.007504
PD2366   PD        0.168065    0.216301    0.572520     0.005394
PD2367   PD        0.204811    0.184715    0.570785     0.005394
AU2368   AU        0.201509    0.218710    0.535928     0.007504
AU2369   AU        0.238489    0.181613    0.534135     0.007504
PD2370   PD        0.235228    0.216284    0.571292     0.005394
AU2371   AU        0.271283    0.182002    0.571017     0.007504
PD2372   PD        0.270261    0.221329    0.534725     0.005394
PD2373   PD        0.302135    0.184745    0.536435     0.005394
AU2374   AU        0.302626    0.217046    0.570635     0.007504
PD2375   PD        0.336104    0.182860    0.571183     0.005394
PD2376   PD        0.333685    0.220866    0.537741     0.005394
PD2377   PD        0.366531    0.185428    0.536544     0.005394
AU2378   AU        0.367728    0.218033    0.570683     0.007504
AU2379   AU        0.400494    0.183260    0.571425     0.007504
PD2380   PD        0.400863    0.216704    0.537977     0.005394
AU2381   AU        0.435342    0.184410    0.536506     0.007504
AU2382   AU        0.435813    0.217698    0.571532     0.007504
PD2383   PD        0.469706    0.183787    0.573321     0.005394
PD2384   PD        0.469944    0.219295    0.538508     0.005394
AU2385   AU        0.502060    0.181537    0.536945     0.007504
PD2386   PD        0.501177    0.219018    0.573354     0.005394
PD2387   PD        0.533462    0.184310    0.573767     0.005394
PD2388   PD        0.535114    0.218986    0.536970     0.005394
PD2389   PD        0.567226    0.182696    0.537314     0.005394
AU2390   AU        0.568227    0.220061    0.574104     0.007504
AU2391   AU        0.601168    0.183374    0.569646     0.007504
PD2392   PD        0.602669    0.218485    0.536316     0.005394
AU2393   AU        0.633718    0.184363    0.537420     0.007504
AU2394   AU        0.632780    0.218483    0.571885     0.007504
AU2395   AU        0.666677    0.183508    0.571992     0.007504
AU2396   AU        0.666571    0.219378    0.539586     0.007504
PD2397   PD        0.699405    0.182237    0.540224     0.005394
AU2398   AU        0.702322    0.217954    0.571166     0.007504
PD2399   PD        0.800589    0.222005    0.531938     0.005394
PD2400   PD        0.072878    0.292062    0.534846     0.005394
AU2401   AU        0.105817    0.252527    0.538358     0.007504
AU2402   AU        0.103545    0.290626    0.572321     0.007504
PD2403   PD        0.137861    0.253176    0.574890     0.005394
AU2404   AU        0.135812    0.290463    0.536344     0.007504
PD2405   PD        0.167715    0.255818    0.538756     0.005394
PD2406   PD        0.170552    0.290555    0.573906     0.005394
PD2407   PD        0.203747    0.253000    0.570450     0.005394
AU2408   AU        0.202160    0.290272    0.537565     0.007504
PD2409   PD        0.234691    0.252746    0.534368     0.005394
PD2410   PD        0.235698    0.288768    0.573049     0.005394
PD2411   PD        0.267495    0.251872    0.569883     0.005394
PD2412   PD        0.266893    0.288043    0.533362     0.005394
AU2413   AU        0.301798    0.255080    0.537357     0.007504
PD2414   PD        0.301348    0.289656    0.568530     0.005394
PD2415   PD        0.333904    0.256220    0.570404     0.005394
AU2416   AU        0.337563    0.288793    0.535180     0.007504
AU2417   AU        0.368694    0.254129    0.537031     0.007504
PD2418   PD        0.369988    0.288277    0.571407     0.005394
AU2419   AU        0.399187    0.252464    0.572168     0.007504
AU2420   AU        0.402292    0.289463    0.536015     0.007504
AU2421   AU        0.435297    0.252475    0.537606     0.007504
PD2422   PD        0.437533    0.289104    0.571711     0.005394
PD2423   PD        0.468176    0.253791    0.572645     0.005394
AU2424   AU        0.469086    0.289727    0.536123     0.007504
AU2425   AU        0.501373    0.253995    0.538058     0.007504
AU2426   AU        0.501877    0.288868    0.573417     0.007504
AU2427   AU        0.537260    0.255023    0.573710     0.007504
AU2428   AU        0.533678    0.290269    0.535533     0.007504
PD2429   PD        0.570723    0.251994    0.537931     0.005394
AU2430   AU        0.567631    0.289988    0.572227     0.007504
AU2431   AU        0.602262    0.256263    0.574199     0.007504
PD2432   PD        0.602259    0.286928    0.537002     0.005394
AU2433   AU        0.635814    0.255254    0.539107     0.007504
PD2434   PD        0.635606    0.291384    0.574115     0.005394
AU2435   AU        0.666427    0.254549    0.573818     0.007504
AU2436   AU        0.668586    0.291309    0.535587     0.007504
PD2437   PD        0.700367    0.255909    0.539310     0.005394
AU2438   AU        0.698839    0.291181    0.572195     0.007504
PD2439   PD        0.734529    0.257254    0.572689     0.005394
PD2440   PD        0.732796    0.290734    0.535153     0.005394
PD2441   PD        0.765773    0.253889    0.536171     0.005394
AU2442   AU        0.764749    0.295121    0.568892     0.007504
PD2443   PD        0.834324    0.292439    0.573839     0.005394
PD2444   PD        0.070105    0.326787    0.570128     0.005394
AU2445   AU        0.073983    0.363704    0.537709     0.007504
PD2446   PD        0.104915    0.324851    0.537196     0.005394
PD2447   PD        0.105853    0.362310    0.573734     0.005394
PD2448   PD        0.138903    0.326023    0.571496     0.005394
PD2449   PD        0.139126    0.362785    0.534034     0.005394
AU2450   AU        0.170168    0.326600    0.535467     0.007504
PD2451   PD        0.170149    0.360409    0.569250     0.005394
AU2452   AU        0.201872    0.326481    0.571899     0.007504
PD2453   PD        0.203597    0.360687    0.537070     0.005394
AU2454   AU        0.236391    0.324188    0.537681     0.007504
PD2455   PD        0.235255    0.362873    0.570932     0.005394
PD2456   PD        0.268392    0.323952    0.569443     0.005394
AU2457   AU        0.268867    0.361002    0.533322     0.007504
AU2458   AU        0.304383    0.324698    0.535841     0.007504
AU2459   AU        0.302101    0.360506    0.569966     0.007504
AU2460   AU        0.335246    0.326652    0.570412     0.007504
AU2461   AU        0.334405    0.361593    0.536118     0.007504
PD2462   PD        0.369994    0.325456    0.535634     0.005394
PD2463   PD        0.370954    0.360193    0.572438     0.005394
AU2464   AU        0.401151    0.323680    0.573087     0.007504
PD2465   PD        0.403313    0.361921    0.534957     0.005394
PD2466   PD        0.435635    0.323472    0.538006     0.005394
PD2467   PD        0.435199    0.361675    0.571313     0.005394
PD2468   PD        0.472129    0.325232    0.572138     0.005394
PD2469   PD        0.467585    0.361227    0.535384     0.005394
PD2470   PD        0.501376    0.326163    0.536490     0.005394
AU2471   AU        0.501827    0.363293    0.572471     0.007504
AU2472   AU        0.535041    0.324310    0.573065     0.007504
AU2473   AU        0.535480    0.358609    0.536378     0.007504
AU2474   AU        0.569491    0.326520    0.538039     0.007504
PD2475   PD        0.568012    0.361095    0.572359     0.005394
AU2476   AU        0.601499    0.327920    0.574023     0.007504
AU2477   AU        0.602258    0.361394    0.537304     0.007504
AU2478   AU        0.633620    0.326245    0.537139     0.007504
PD2479   PD        0.633723    0.362798    0.572870     0.005394
AU2480   AU        0.667398    0.327293    0.572510     0.007504
AU2481   AU        0.666993    0.360853    0.536191     0.007504
PD2482   PD        0.701044    0.328363    0.534037     0.005394
PD2483   PD        0.699091    0.362720    0.569687     0.005394
AU2484   AU        0.732096    0.328515    0.571771     0.007504
PD2485   PD        0.733078    0.363962    0.535543     0.005394
PD2486   PD        0.765142    0.328949    0.532330     0.005394
AU2487   AU        0.765593    0.363987    0.572379     0.007504
PD2488   PD        0.799211    0.326958    0.573060     0.005394
AU2489   AU        0.797944    0.365171    0.537283     0.007504
PD2490   PD        0.070069    0.397266    0.569439     0.005394
PD2491   PD        0.068707    0.431785    0.536174     0.005394
AU2492   AU        0.105710    0.398436    0.536026     0.007504
AU2493   AU        0.105231    0.432754    0.569604     0.007504
PD2494   PD        0.138021    0.398517    0.571551     0.005394
AU2495   AU        0.139584    0.434758    0.536013     0.007504
AU2496   AU        0.169243    0.397985    0.535434     0.007504
AU2497   AU        0.169268    0.436549    0.571317     0.007504
PD2498   PD        0.198974    0.398257    0.572574     0.005394
AU2499   AU        0.200674    0.433239    0.536699     0.007504
PD2500   PD        0.234771    0.398099    0.537667     0.005394
AU2501   AU        0.232872    0.431364    0.572179     0.007504
AU2502   AU        0.268959    0.395225    0.571289     0.007504
AU2503   AU        0.268925    0.430759    0.535693     0.007504
PD2504   PD        0.301303    0.397467    0.537137     0.005394
PD2505   PD        0.300285    0.433153    0.570999     0.005394
PD2506   PD        0.333153    0.395181    0.571602     0.005394
AU2507   AU        0.332430    0.433152    0.535873     0.007504
AU2508   AU        0.368802    0.397916    0.536553     0.007504
AU2509   AU        0.366810    0.432328    0.572055     0.007504
AU2510   AU        0.401324    0.397153    0.572820     0.007504
AU2511   AU        0.399551    0.434793    0.534873     0.007504
AU2512   AU        0.433177    0.399421    0.536522     0.007504
AU2513   AU        0.432343    0.432359    0.573350     0.007504
PD2514   PD        0.467513    0.399524    0.572143     0.005394
PD2515   PD        0.468118    0.432989    0.535052     0.005394
AU2516   AU        0.502107    0.399218    0.535119     0.007504
AU2517   AU        0.501577    0.432222    0.570402     0.007504
AU2518   AU        0.534770    0.395877    0.571910     0.007504
AU2519   AU        0.535346    0.433810    0.537689     0.007504
AU2520   AU        0.568253    0.398201    0.535762     0.007504
AU2521   AU        0.568407    0.433201    0.571382     0.007504
AU2522   AU        0.601027    0.398853    0.572736     0.007504
AU2523   AU        0.603054    0.431731    0.535172     0.007504
AU2524   AU        0.634518    0.395909    0.535474     0.007504
PD2525   PD        0.633434    0.435197    0.570931     0.005394
PD2526   PD        0.665202    0.398195    0.571891     0.005394
PD2527   PD        0.665285    0.431002    0.534586     0.005394
AU2528   AU        0.699183    0.396618    0.535928     0.007504
PD2529   PD        0.697658    0.430812    0.570211     0.005394
PD2530   PD        0.732527    0.394443    0.570604     0.005394
AU2531   AU        0.732014    0.432825    0.535784     0.007504
PD2532   PD        0.765853    0.400667    0.536885     0.005394
PD2533   PD        0.766010    0.435491    0.573079     0.005394
AU2534   AU        0.802052    0.399709    0.569281     0.007504
PD2535   PD        0.796623    0.433909    0.535923     0.005394
PD2536   PD        0.037055    0.469338    0.534583     0.005394
PD2537   PD        0.072779    0.467342    0.569483     0.005394
PD2538   PD        0.072515    0.503791    0.533781     0.005394
AU2539   AU        0.105396    0.467914    0.535316     0.007504
PD2540   PD        0.103223    0.505043    0.570958     0.005394
AU2541   AU        0.135355    0.471510    0.571758     0.007504
AU2542   AU        0.136576    0.505346    0.535980     0.007504
AU2543   AU        0.169588    0.471701    0.535771     0.007504
AU2544   AU        0.169298    0.506184    0.571313     0.007504
AU2545   AU        0.201840    0.469450    0.573289     0.007504
AU2546   AU        0.203983    0.505775    0.533824     0.007504
PD2547   PD        0.234165    0.467815    0.536563     0.005394
AU2548   AU        0.235449    0.502439    0.572422     0.007504
AU2549   AU        0.269736    0.467351    0.569420     0.007504
AU2550   AU        0.268579    0.504697    0.535061     0.007504
AU2551   AU        0.299514    0.468985    0.534377     0.007504
AU2552   AU        0.301981    0.504354    0.568107     0.007504
PD2553   PD        0.331770    0.468867    0.570734     0.005394
AU2554   AU        0.333434    0.503912    0.535000     0.007504
AU2555   AU        0.364822    0.467758    0.535625     0.007504
AU2556   AU        0.370205    0.505779    0.569886     0.007504
AU2557   AU        0.402621    0.468004    0.570820     0.007504
PD2558   PD        0.402287    0.503979    0.536101     0.005394
AU2559   AU        0.435046    0.467042    0.536630     0.007504
AU2560   AU        0.436039    0.504356    0.573605     0.007504
AU2561   AU        0.469569    0.468751    0.569638     0.007504
AU2562   AU        0.465607    0.501708    0.535294     0.007504
AU2563   AU        0.500174    0.468366    0.536184     0.007504
PD2564   PD        0.500851    0.502478    0.573194     0.005394
AU2565   AU        0.535182    0.468942    0.571101     0.007504
PD2566   PD        0.534823    0.504574    0.537546     0.005394
PD2567   PD        0.569938    0.467091    0.536465     0.005394
AU2568   AU        0.566152    0.503286    0.572766     0.007504
AU2569   AU        0.601566    0.467313    0.571369     0.007504
AU2570   AU        0.599975    0.503254    0.536558     0.007504
AU2571   AU        0.633687    0.469391    0.534615     0.007504
AU2572   AU        0.633933    0.503037    0.571788     0.007504
AU2573   AU        0.668689    0.468235    0.572590     0.007504
AU2574   AU        0.669279    0.504114    0.534474     0.007504
AU2575   AU        0.699069    0.467140    0.537361     0.007504
AU2576   AU        0.700236    0.503152    0.569906     0.007504
AU2577   AU        0.730252    0.469737    0.572694     0.007504
PD2578   PD        0.733821    0.503965    0.536129     0.005394
PD2579   PD        0.765439    0.468905    0.535206     0.005394
PD2580   PD        0.764128    0.503484    0.571049     0.005394
AU2581   AU        0.797930    0.467302    0.571146     0.007504
AU2582   AU        0.796930    0.504161    0.536579     0.007504
PD2583   PD        0.874806    0.455962    0.476772     0.005394
PD2584   PD        0.071820    0.539055    0.572131     0.005394
AU2585   AU        0.071034    0.578216    0.535829     0.007504
PD2586   PD        0.103634    0.541415    0.535830     0.005394
AU2587   AU        0.104058    0.576994    0.571283     0.007504
AU2588   AU        0.136388    0.541661    0.569537     0.007504
PD2589   PD        0.137712    0.577703    0.535587     0.005394
AU2590   AU        0.169156    0.543149    0.535731     0.007504
AU2591   AU        0.168683    0.575373    0.570068     0.007504
PD2592   PD        0.204368    0.540324    0.569382     0.005394
AU2593   AU        0.203330    0.575802    0.536402     0.007504
AU2594   AU        0.235716    0.540448    0.534562     0.007504
PD2595   PD        0.235318    0.577132    0.571749     0.005394
AU2596   AU        0.268840    0.539683    0.568819     0.007504
AU2597   AU        0.265339    0.576224    0.534380     0.007504
AU2598   AU        0.299867    0.541047    0.534966     0.007504
PD2599   PD        0.300433    0.574896    0.570088     0.005394
AU2600   AU        0.334066    0.538789    0.570743     0.007504
AU2601   AU        0.333314    0.576399    0.534406     0.007504
AU2602   AU        0.367565    0.540420    0.534561     0.007504
AU2603   AU        0.365702    0.575398    0.571214     0.007504
AU2604   AU        0.401959    0.542314    0.572301     0.007504
AU2605   AU        0.399609    0.576240    0.536745     0.007504
AU2606   AU        0.433780    0.539421    0.536196     0.007504
AU2607   AU        0.434715    0.577693    0.570882     0.007504
AU2608   AU        0.468352    0.541380    0.571609     0.007504
AU2609   AU        0.467765    0.575705    0.537071     0.007504
AU2610   AU        0.501265    0.539963    0.535239     0.007504
AU2611   AU        0.500917    0.576186    0.573758     0.007504
AU2612   AU        0.534128    0.541336    0.570481     0.007504
AU2613   AU        0.535021    0.576183    0.533532     0.007504
AU2614   AU        0.568748    0.540195    0.536635     0.007504
AU2615   AU        0.567554    0.573323    0.570336     0.007504
AU2616   AU        0.601088    0.538102    0.571875     0.007504
AU2617   AU        0.598351    0.575140    0.535025     0.007504
AU2618   AU        0.634641    0.539971    0.534243     0.007504
AU2619   AU        0.632210    0.573721    0.568932     0.007504
AU2620   AU        0.665655    0.538880    0.570417     0.007504
PD2621   PD        0.665051    0.573446    0.536860     0.005394
PD2622   PD        0.700456    0.539658    0.534316     0.005394
AU2623   AU        0.697708    0.573783    0.571496     0.007504
AU2624   AU        0.729449    0.539004    0.571627     0.007504
PD2625   PD        0.729597    0.576459    0.536087     0.005394
PD2626   PD        0.763868    0.538935    0.536282     0.005394
AU2627   AU        0.762456    0.575911    0.567858     0.007504
PD2628   PD        0.828782    0.507391    0.569456     0.005394
PD2629   PD        0.798025    0.576976    0.532634     0.005394
PD2630   PD        0.068511    0.613252    0.571750     0.005394
PD2631   PD        0.072797    0.645360    0.534472     0.005394
PD2632   PD        0.103325    0.613067    0.536226     0.005394
PD2633   PD        0.102443    0.646262    0.570128     0.005394
PD2634   PD        0.136004    0.612098    0.566616     0.005394
AU2635   AU        0.137403    0.647382    0.533317     0.007504
AU2636   AU        0.170008    0.610775    0.535856     0.007504
PD2637   PD        0.171585    0.648722    0.568795     0.005394
AU2638   AU        0.204162    0.612016    0.569848     0.007504
AU2639   AU        0.201438    0.647067    0.533989     0.007504
AU2640   AU        0.237566    0.611872    0.534765     0.007504
AU2641   AU        0.234967    0.646080    0.570972     0.007504
AU2642   AU        0.268725    0.611744    0.570467     0.007504
AU2643   AU        0.268118    0.645923    0.534436     0.007504
AU2644   AU        0.299301    0.610428    0.534345     0.007504
AU2645   AU        0.301494    0.647785    0.569368     0.007504
AU2646   AU        0.332650    0.612137    0.569002     0.007504
AU2647   AU        0.335481    0.646231    0.534778     0.007504
AU2648   AU        0.366959    0.612496    0.535287     0.007504
AU2649   AU        0.367096    0.648219    0.571028     0.007504
AU2650   AU        0.399715    0.611941    0.570363     0.007504
AU2651   AU        0.401165    0.646237    0.537936     0.007504
AU2652   AU        0.436939    0.610623    0.536170     0.007504
AU2653   AU        0.435398    0.646204    0.571063     0.007504
AU2654   AU        0.468790    0.611000    0.571226     0.007504
AU2655   AU        0.468159    0.646761    0.535934     0.007504
AU2656   AU        0.499460    0.612750    0.536114     0.007504
AU2657   AU        0.500619    0.648127    0.571985     0.007504
PD2658   PD        0.533993    0.609786    0.572458     0.005394
AU2659   AU        0.532689    0.648128    0.535044     0.007504
PD2660   PD        0.569192    0.612388    0.538133     0.005394
PD2661   PD        0.566998    0.646199    0.571482     0.005394
AU2662   AU        0.599520    0.612379    0.570728     0.007504
PD2663   PD        0.601038    0.648111    0.534309     0.005394
PD2664   PD        0.632464    0.610401    0.536656     0.005394
PD2665   PD        0.634112    0.645415    0.571519     0.005394
AU2666   AU        0.665989    0.612593    0.569892     0.007504
PD2667   PD        0.664666    0.644492    0.537064     0.005394
AU2668   AU        0.697837    0.609607    0.534194     0.007504
PD2669   PD        0.697665    0.646597    0.570224     0.005394
AU2670   AU        0.732047    0.610553    0.568216     0.007504
PD2671   PD        0.732689    0.646496    0.534535     0.005394
AU2672   AU        0.765724    0.611317    0.531530     0.007504
PD2673   PD        0.764104    0.644413    0.571782     0.005394
AU2674   AU        0.796347    0.608570    0.569901     0.007504
PD2675   PD        0.863033    0.564987    0.534769     0.005394
AU2676   AU        0.103103    0.684455    0.533437     0.007504
PD2677   PD        0.137463    0.681708    0.567343     0.005394
AU2678   AU        0.137646    0.716166    0.533256     0.007504
AU2679   AU        0.171421    0.683372    0.534248     0.007504
PD2680   PD        0.171008    0.717318    0.567639     0.005394
PD2681   PD        0.202612    0.683487    0.567941     0.005394
PD2682   PD        0.202922    0.718194    0.534313     0.005394
AU2683   AU        0.234936    0.681696    0.533940     0.007504
AU2684   AU        0.237201    0.719520    0.570872     0.007504
PD2685   PD        0.268118    0.682640    0.566984     0.005394
AU2686   AU        0.269588    0.717577    0.534054     0.007504
PD2687   PD        0.302235    0.683723    0.533915     0.005394
PD2688   PD        0.302072    0.721326    0.571243     0.005394
PD2689   PD        0.335709    0.683675    0.569642     0.005394
AU2690   AU        0.335248    0.716286    0.534818     0.007504
PD2691   PD        0.368284    0.683743    0.534032     0.005394
AU2692   AU        0.367719    0.718377    0.571892     0.007504
PD2693   PD        0.401214    0.683063    0.570996     0.005394
PD2694   PD        0.401827    0.718621    0.534636     0.005394
AU2695   AU        0.433329    0.682471    0.535550     0.007504
AU2696   AU        0.432757    0.718658    0.569887     0.007504
AU2697   AU        0.466469    0.683837    0.571197     0.007504
PD2698   PD        0.468362    0.713710    0.534551     0.005394
AU2699   AU        0.499591    0.682331    0.535843     0.007504
AU2700   AU        0.500413    0.719358    0.569262     0.007504
AU2701   AU        0.532322    0.683267    0.569909     0.007504
AU2702   AU        0.533742    0.720076    0.535644     0.007504
PD2703   PD        0.567787    0.683497    0.534548     0.005394
AU2704   AU        0.568672    0.717858    0.568648     0.007504
PD2705   PD        0.602890    0.682178    0.568084     0.005394
PD2706   PD        0.598693    0.719643    0.534868     0.005394
PD2707   PD        0.633491    0.681917    0.534374     0.005394
AU2708   AU        0.631846    0.719926    0.570915     0.007504
AU2709   AU        0.663846    0.682763    0.572407     0.007504
AU2710   AU        0.663491    0.718982    0.534208     0.007504
AU2711   AU        0.695257    0.681885    0.536005     0.007504
AU2712   AU        0.695478    0.716473    0.571818     0.007504
PD2713   PD        0.729469    0.683313    0.570027     0.005394
PD2714   PD        0.746929    0.749850    0.566840     0.005394
PD2715   PD        0.772534    0.676057    0.544831     0.005394
AU2716   AU        0.169078    0.754375    0.534479     0.007504
PD2717   PD        0.200882    0.751304    0.570535     0.005394
AU2718   AU        0.202400    0.789297    0.533524     0.007504
AU2719   AU        0.235247    0.752885    0.536642     0.007504
AU2720   AU        0.234046    0.786938    0.570107     0.007504
PD2721   PD        0.267515    0.752772    0.569891     0.005394
PD2722   PD        0.267982    0.790712    0.535090     0.005394
AU2723   AU        0.299612    0.752490    0.534045     0.007504
AU2724   AU        0.301512    0.789387    0.570446     0.007504
PD2725   PD        0.333997    0.752655    0.571746     0.005394
AU2726   AU        0.333519    0.790166    0.534151     0.007504
PD2727   PD        0.366497    0.752129    0.534952     0.005394
AU2728   AU        0.368527    0.789469    0.570353     0.007504
PD2729   PD        0.401924    0.753080    0.570518     0.005394
AU2730   AU        0.401669    0.788849    0.534750     0.007504
AU2731   AU        0.433924    0.753215    0.533177     0.007504
AU2732   AU        0.434096    0.787309    0.570849     0.007504
AU2733   AU        0.467221    0.754483    0.569436     0.007504
AU2734   AU        0.468727    0.789040    0.534124     0.007504
AU2735   AU        0.499629    0.751915    0.535094     0.007504
PD2736   PD        0.499933    0.785760    0.569795     0.005394
AU2737   AU        0.534409    0.752711    0.570613     0.007504
PD2738   PD        0.533569    0.784939    0.535294     0.005394
PD2739   PD        0.564207    0.753217    0.534831     0.005394
PD2740   PD        0.564387    0.789692    0.569833     0.005394
PD2741   PD        0.599343    0.751907    0.568986     0.005394
AU2742   AU        0.597207    0.786949    0.533785     0.007504
PD2743   PD        0.630214    0.754389    0.534742     0.005394
PD2744   PD        0.632567    0.788347    0.570707     0.005394
PD2745   PD        0.666366    0.751409    0.571462     0.005394
PD2746   PD        0.664260    0.790287    0.532159     0.005394
PD2747   PD        0.698755    0.757578    0.529907     0.005394
PD2748   PD        0.237125    0.824315    0.533784     0.005394
PD2749   PD        0.270120    0.823327    0.569975     0.005394
PD2750   PD        0.233188    0.860398    0.570151     0.005394
PD2751   PD        0.300482    0.822296    0.535796     0.005394
AU2752   AU        0.301175    0.857823    0.571159     0.007504
PD2753   PD        0.336581    0.824280    0.569502     0.005394
PD2754   PD        0.334633    0.856582    0.534995     0.005394
PD2755   PD        0.368883    0.821806    0.536820     0.005394
PD2756   PD        0.367545    0.858841    0.569107     0.005394
AU2757   AU        0.403852    0.823400    0.571321     0.007504
AU2758   AU        0.401024    0.859960    0.534790     0.007504
AU2759   AU        0.435126    0.823500    0.535936     0.007504
PD2760   PD        0.435930    0.861431    0.570317     0.005394
AU2761   AU        0.467303    0.822586    0.570840     0.007504
PD2762   PD        0.467238    0.857157    0.535386     0.005394
AU2763   AU        0.501530    0.823200    0.533393     0.007504
AU2764   AU        0.499142    0.858868    0.568093     0.007504
AU2765   AU        0.530191    0.821950    0.569253     0.007504
PD2766   PD        0.532916    0.858045    0.533535     0.005394
PD2767   PD        0.565768    0.822099    0.534842     0.005394
PD2768   PD        0.564738    0.856469    0.568205     0.005394
PD2769   PD        0.601508    0.825100    0.568774     0.005394
AU2770   AU        0.597729    0.860771    0.533189     0.007504
PD2771   PD        0.628304    0.824620    0.534390     0.005394
PD2772   PD        0.431956    0.894633    0.535435     0.005394
PD2773   PD        0.336360    0.078169    0.604808     0.005394
PD2774   PD        0.371721    0.080233    0.640541     0.005394
PD2775   PD        0.403275    0.077260    0.607110     0.005394
PD2776   PD        0.433531    0.077750    0.643242     0.005394
PD2777   PD        0.469526    0.078153    0.610610     0.005394
PD2778   PD        0.500969    0.076980    0.642949     0.005394
PD2779   PD        0.536273    0.077439    0.610364     0.005394
PD2780   PD        0.172831    0.108317    0.602499     0.005394
PD2781   PD        0.238595    0.147452    0.646200     0.005394
PD2782   PD        0.270779    0.111264    0.641878     0.005394
AU2783   AU        0.271539    0.148338    0.609657     0.007504
AU2784   AU        0.302047    0.113299    0.605647     0.007504
AU2785   AU        0.301698    0.147577    0.644523     0.007504
PD2786   PD        0.336326    0.115157    0.642203     0.005394
PD2787   PD        0.337204    0.145792    0.610890     0.005394
PD2788   PD        0.369074    0.114846    0.606561     0.005394
PD2789   PD        0.369626    0.148718    0.642896     0.005394
AU2790   AU        0.403511    0.112921    0.640327     0.007504
AU2791   AU        0.402931    0.149867    0.608027     0.007504
AU2792   AU        0.435773    0.113601    0.606554     0.007504
PD2793   PD        0.434607    0.151187    0.641977     0.005394
AU2794   AU        0.466899    0.114339    0.642351     0.007504
PD2795   PD        0.469638    0.150253    0.604977     0.005394
AU2796   AU        0.501817    0.113130    0.607995     0.007504
AU2797   AU        0.501642    0.147591    0.642838     0.007504
AU2798   AU        0.533199    0.113012    0.643290     0.007504
PD2799   PD        0.536431    0.148942    0.607163     0.005394
PD2800   PD        0.566745    0.114280    0.610870     0.005394
PD2801   PD        0.568344    0.150261    0.644815     0.005394
PD2802   PD        0.601740    0.076263    0.677684     0.005394
AU2803   AU        0.600552    0.149479    0.607812     0.007504
PD2804   PD        0.633365    0.147442    0.643187     0.005394
PD2805   PD        0.709431    0.083169    0.652790     0.005394
PD2806   PD        0.139696    0.215861    0.607990     0.005394
PD2807   PD        0.138729    0.146842    0.614593     0.005394
PD2808   PD        0.173452    0.216451    0.640905     0.005394
PD2809   PD        0.205328    0.180497    0.640935     0.005394
AU2810   AU        0.204821    0.217541    0.609100     0.007504
PD2811   PD        0.236301    0.182822    0.605911     0.005394
AU2812   AU        0.237538    0.218137    0.644888     0.007504
AU2813   AU        0.268971    0.184945    0.642509     0.007504
PD2814   PD        0.270654    0.216568    0.606116     0.005394
PD2815   PD        0.301896    0.181750    0.607740     0.005394
AU2816   AU        0.303182    0.216229    0.643318     0.007504
AU2817   AU        0.335738    0.182979    0.643764     0.007504
PD2818   PD        0.336677    0.218891    0.608555     0.005394
AU2819   AU        0.366767    0.182630    0.605760     0.007504
PD2820   PD        0.369541    0.218300    0.643270     0.005394
PD2821   PD        0.399818    0.183659    0.641696     0.005394
AU2822   AU        0.400449    0.219336    0.606598     0.007504
PD2823   PD        0.437979    0.183252    0.607848     0.005394
PD2824   PD        0.433751    0.219050    0.642286     0.005394
AU2825   AU        0.469931    0.185035    0.644457     0.007504
AU2826   AU        0.467623    0.219878    0.609613     0.007504
PD2827   PD        0.498962    0.185045    0.609613     0.005394
AU2828   AU        0.502340    0.220284    0.643982     0.007504
AU2829   AU        0.534618    0.184545    0.642924     0.007504
AU2830   AU        0.534306    0.218981    0.608734     0.007504
AU2831   AU        0.569407    0.186618    0.607100     0.007504
AU2832   AU        0.569567    0.218969    0.642473     0.007504
AU2833   AU        0.601082    0.184286    0.644244     0.007504
AU2834   AU        0.601802    0.218777    0.608890     0.007504
PD2835   PD        0.633968    0.183518    0.609272     0.005394
PD2836   PD        0.632742    0.219870    0.642833     0.005394
PD2837   PD        0.732785    0.149176    0.677164     0.005394
AU2838   AU        0.666580    0.219145    0.607116     0.007504
PD2839   PD        0.697153    0.185628    0.612489     0.005394
PD2840   PD        0.737347    0.223795    0.677575     0.005394
PD2841   PD        0.734384    0.218099    0.608042     0.005394
PD2842   PD        0.101719    0.257455    0.681912     0.005394
PD2843   PD        0.139002    0.254838    0.639114     0.005394
PD2844   PD        0.138053    0.289518    0.605784     0.005394
AU2845   AU        0.171117    0.252288    0.607293     0.007504
AU2846   AU        0.171972    0.288834    0.640337     0.007504
PD2847   PD        0.206593    0.252454    0.643442     0.005394
AU2848   AU        0.203422    0.289730    0.606777     0.007504
PD2849   PD        0.236694    0.251856    0.608535     0.005394
AU2850   AU        0.236255    0.288409    0.639530     0.007504
AU2851   AU        0.269925    0.253252    0.641415     0.007504
AU2852   AU        0.269734    0.287099    0.605572     0.007504
AU2853   AU        0.301550    0.253549    0.608344     0.007504
AU2854   AU        0.300952    0.288451    0.643919     0.007504
PD2855   PD        0.335125    0.253726    0.643716     0.005394
AU2856   AU        0.333114    0.288124    0.606683     0.007504
PD2857   PD        0.365563    0.255045    0.609251     0.005394
PD2858   PD        0.368680    0.285468    0.642358     0.005394
PD2859   PD        0.400745    0.253572    0.642185     0.005394
AU2860   AU        0.400725    0.288916    0.606050     0.007504
PD2861   PD        0.436359    0.253904    0.606516     0.005394
AU2862   AU        0.435293    0.288438    0.643286     0.007504
PD2863   PD        0.471495    0.255219    0.643840     0.005394
AU2864   AU        0.469697    0.287921    0.608580     0.007504
AU2865   AU        0.501497    0.253976    0.607351     0.007504
PD2866   PD        0.501872    0.288262    0.643592     0.005394
PD2867   PD        0.535223    0.254595    0.645019     0.005394
AU2868   AU        0.535616    0.289307    0.607344     0.007504
AU2869   AU        0.568764    0.257193    0.609641     0.007504
PD2870   PD        0.568861    0.293322    0.645402     0.005394
PD2871   PD        0.602287    0.254247    0.643117     0.005394
AU2872   AU        0.605371    0.291725    0.609120     0.007504
PD2873   PD        0.635829    0.253525    0.608571     0.005394
PD2874   PD        0.636161    0.288963    0.643774     0.005394
PD2875   PD        0.671274    0.255433    0.641462     0.005394
PD2876   PD        0.666213    0.290326    0.610657     0.005394
AU2877   AU        0.702427    0.255956    0.607982     0.007504
AU2878   AU        0.702942    0.292083    0.643928     0.007504
PD2879   PD        0.732638    0.254075    0.642850     0.005394
AU2880   AU        0.733185    0.292973    0.605532     0.007504
PD2881   PD        0.764434    0.289667    0.644231     0.005394
AU2882   AU        0.070750    0.361791    0.609184     0.007504
AU2883   AU        0.103223    0.325648    0.605231     0.007504
PD2884   PD        0.103950    0.362535    0.640546     0.005394
PD2885   PD        0.137474    0.326616    0.642083     0.005394
PD2886   PD        0.137779    0.359837    0.608149     0.005394
PD2887   PD        0.171132    0.326686    0.606291     0.005394
PD2888   PD        0.170985    0.359437    0.645995     0.005394
AU2889   AU        0.203798    0.322347    0.642924     0.007504
AU2890   AU        0.202842    0.359182    0.606843     0.007504
AU2891   AU        0.236519    0.326626    0.606101     0.007504
PD2892   PD        0.236290    0.360744    0.643538     0.005394
PD2893   PD        0.269279    0.321449    0.644442     0.005394
AU2894   AU        0.267542    0.360675    0.606970     0.007504
AU2895   AU        0.302289    0.323254    0.606063     0.007504
AU2896   AU        0.299684    0.358964    0.643483     0.007504
AU2897   AU        0.333771    0.322819    0.642676     0.007504
PD2898   PD        0.332231    0.359490    0.607916     0.005394
AU2899   AU        0.367132    0.323350    0.608225     0.007504
AU2900   AU        0.366243    0.358640    0.643574     0.007504
AU2901   AU        0.402734    0.324548    0.639815     0.007504
PD2902   PD        0.404025    0.360843    0.606897     0.005394
PD2903   PD        0.434859    0.324361    0.606926     0.005394
PD2904   PD        0.433099    0.359982    0.642471     0.005394
PD2905   PD        0.471076    0.324881    0.643563     0.005394
AU2906   AU        0.469670    0.362278    0.606347     0.007504
AU2907   AU        0.502842    0.326538    0.607130     0.007504
AU2908   AU        0.502899    0.361664    0.642528     0.007504
AU2909   AU        0.533104    0.326602    0.643108     0.007504
AU2910   AU        0.534866    0.361830    0.606687     0.007504
AU2911   AU        0.569159    0.327111    0.608473     0.007504
PD2912   PD        0.565744    0.361596    0.643401     0.005394
AU2913   AU        0.602987    0.324039    0.642688     0.007504
AU2914   AU        0.603567    0.363608    0.609766     0.007504
AU2915   AU        0.636791    0.327590    0.607991     0.007504
AU2916   AU        0.636334    0.361588    0.643284     0.007504
PD2917   PD        0.668095    0.328109    0.640744     0.005394
AU2918   AU        0.668517    0.363880    0.607545     0.007504
AU2919   AU        0.699507    0.326774    0.608236     0.007504
PD2920   PD        0.703198    0.365167    0.644029     0.005394
AU2921   AU        0.734457    0.328451    0.642874     0.007504
PD2922   PD        0.733901    0.359897    0.608342     0.005394
PD2923   PD        0.765061    0.326829    0.606466     0.005394
AU2924   AU        0.766527    0.364537    0.639391     0.007504
PD2925   PD        0.800392    0.361136    0.607351     0.005394
PD2926   PD        0.033177    0.356131    0.708471     0.005394
PD2927   PD        0.072688    0.433809    0.605209     0.005394
AU2928   AU        0.103969    0.398667    0.606035     0.007504
PD2929   PD        0.101863    0.435994    0.642069     0.005394
PD2930   PD        0.138776    0.397287    0.641969     0.005394
AU2931   AU        0.135938    0.435055    0.607577     0.007504
PD2932   PD        0.168389    0.397135    0.605583     0.005394
PD2933   PD        0.168502    0.438445    0.643229     0.005394
PD2934   PD        0.204164    0.395978    0.643192     0.005394
PD2935   PD        0.199875    0.431557    0.609770     0.005394
PD2936   PD        0.235091    0.396766    0.604577     0.005394
AU2937   AU        0.235136    0.432172    0.641771     0.007504
AU2938   AU        0.268010    0.395562    0.644366     0.007504
AU2939   AU        0.268450    0.430173    0.606116     0.007504
AU2940   AU        0.298873    0.395638    0.607721     0.007504
AU2941   AU        0.299490    0.434517    0.642471     0.007504
PD2942   PD        0.333629    0.397183    0.642069     0.005394
PD2943   PD        0.335249    0.434370    0.605224     0.005394
AU2944   AU        0.368423    0.394769    0.606668     0.007504
PD2945   PD        0.363945    0.433285    0.642366     0.005394
AU2946   AU        0.402325    0.395227    0.640863     0.007504
PD2947   PD        0.401070    0.432603    0.608859     0.005394
AU2948   AU        0.433230    0.396448    0.606704     0.007504
PD2949   PD        0.434394    0.432810    0.639764     0.005394
AU2950   AU        0.468799    0.397152    0.642082     0.007504
AU2951   AU        0.470073    0.435476    0.606926     0.007504
PD2952   PD        0.503960    0.395892    0.609260     0.005394
AU2953   AU        0.502852    0.432318    0.641615     0.007504
AU2954   AU        0.534749    0.396634    0.643946     0.007504
AU2955   AU        0.535636    0.434468    0.609410     0.007504
AU2956   AU        0.569126    0.395503    0.606261     0.007504
AU2957   AU        0.569130    0.432875    0.643493     0.007504
AU2958   AU        0.602280    0.400036    0.644474     0.007504
AU2959   AU        0.602068    0.434638    0.607104     0.007504
AU2960   AU        0.634615    0.399408    0.608785     0.007504
AU2961   AU        0.634979    0.434105    0.643891     0.007504
PD2962   PD        0.666565    0.398148    0.642150     0.005394
AU2963   AU        0.665856    0.435139    0.607227     0.007504
PD2964   PD        0.699933    0.398093    0.607755     0.005394
AU2965   AU        0.701305    0.432252    0.640420     0.007504
PD2966   PD        0.731636    0.394300    0.640616     0.005394
PD2967   PD        0.731460    0.431875    0.606952     0.005394
AU2968   AU        0.766502    0.398083    0.605938     0.007504
PD2969   PD        0.766189    0.432763    0.638510     0.005394
PD2970   PD        0.834462    0.400355    0.680884     0.005394
AU2971   AU        0.799070    0.434836    0.604619     0.007504
PD2972   PD        0.069620    0.474860    0.640080     0.005394
PD2973   PD        0.065619    0.507352    0.608826     0.005394
PD2974   PD        0.100439    0.472793    0.606430     0.005394
PD2975   PD        0.102042    0.505932    0.639751     0.005394
PD2976   PD        0.136164    0.468611    0.644599     0.005394
AU2977   AU        0.138431    0.506126    0.607024     0.007504
AU2978   AU        0.168341    0.470966    0.606825     0.007504
PD2979   PD        0.168987    0.508844    0.644251     0.005394
PD2980   PD        0.203291    0.470243    0.639522     0.005394
AU2981   AU        0.202562    0.506361    0.606476     0.007504
AU2982   AU        0.236759    0.466415    0.605191     0.007504
PD2983   PD        0.233446    0.503697    0.639145     0.005394
PD2984   PD        0.268813    0.468619    0.639854     0.005394
PD2985   PD        0.266981    0.506464    0.608805     0.005394
PD2986   PD        0.301080    0.471177    0.604742     0.005394
PD2987   PD        0.301174    0.506266    0.642863     0.005394
PD2988   PD        0.335398    0.471342    0.641211     0.005394
AU2989   AU        0.337035    0.505671    0.606582     0.007504
AU2990   AU        0.368265    0.470338    0.604827     0.007504
PD2991   PD        0.369505    0.509841    0.644064     0.005394
PD2992   PD        0.402360    0.468739    0.642602     0.005394
AU2993   AU        0.399729    0.504947    0.608509     0.007504
AU2994   AU        0.433747    0.469072    0.608224     0.007504
AU2995   AU        0.433606    0.504337    0.642093     0.007504
PD2996   PD        0.467774    0.467282    0.643271     0.005394
AU2997   AU        0.467963    0.503684    0.608528     0.007504
PD2998   PD        0.500855    0.466755    0.609086     0.005394
AU2999   AU        0.502268    0.503619    0.643203     0.007504
AU3000   AU        0.534628    0.470585    0.643221     0.007504
AU3001   AU        0.534542    0.503999    0.607701     0.007504
AU3002   AU        0.566835    0.468854    0.606665     0.007504
AU3003   AU        0.566557    0.504231    0.642643     0.007504
AU3004   AU        0.600702    0.469887    0.642656     0.007504
PD3005   PD        0.599412    0.504018    0.608003     0.005394
AU3006   AU        0.634451    0.469008    0.609109     0.007504
AU3007   AU        0.633467    0.503424    0.644611     0.007504
PD3008   PD        0.667144    0.468599    0.643024     0.005394
AU3009   AU        0.666398    0.504081    0.606072     0.007504
PD3010   PD        0.698115    0.469559    0.605499     0.005394
PD3011   PD        0.698448    0.503546    0.642172     0.005394
AU3012   AU        0.731016    0.469891    0.642810     0.007504
AU3013   AU        0.732036    0.504932    0.605767     0.007504
AU3014   AU        0.763485    0.469303    0.607323     0.007504
PD3015   PD        0.764159    0.504716    0.641903     0.005394
AU3016   AU        0.796742    0.470998    0.641207     0.007504
PD3017   PD        0.796447    0.504789    0.604741     0.005394
PD3018   PD        0.072131    0.545964    0.641032     0.005394
PD3019   PD        0.068667    0.578622    0.606919     0.005394
AU3020   AU        0.104752    0.540485    0.605760     0.007504
AU3021   AU        0.105993    0.577118    0.639879     0.007504
PD3022   PD        0.135697    0.541342    0.641264     0.005394
AU3023   AU        0.137307    0.576408    0.606687     0.007504
PD3024   PD        0.171925    0.540718    0.605123     0.005394
AU3025   AU        0.168291    0.578978    0.641845     0.007504
PD3026   PD        0.202242    0.543160    0.641380     0.005394
AU3027   AU        0.203818    0.574849    0.606134     0.007504
AU3028   AU        0.235870    0.541644    0.604496     0.007504
PD3029   PD        0.237289    0.576641    0.642370     0.005394
PD3030   PD        0.268189    0.540641    0.642498     0.005394
PD3031   PD        0.268094    0.578348    0.605482     0.005394
PD3032   PD        0.301486    0.540591    0.604005     0.005394
AU3033   AU        0.301734    0.573639    0.641836     0.007504
AU3034   AU        0.334409    0.540796    0.643243     0.007504
AU3035   AU        0.331992    0.576088    0.605681     0.007504
AU3036   AU        0.367310    0.542315    0.605890     0.007504
AU3037   AU        0.368010    0.577203    0.641630     0.007504
PD3038   PD        0.403145    0.540239    0.641988     0.005394
AU3039   AU        0.400936    0.576413    0.604947     0.007504
AU3040   AU        0.434393    0.540248    0.605712     0.007504
PD3041   PD        0.431821    0.577034    0.640897     0.005394
AU3042   AU        0.466488    0.539482    0.643034     0.007504
AU3043   AU        0.467565    0.575584    0.607657     0.007504
AU3044   AU        0.499974    0.538704    0.608887     0.007504
AU3045   AU        0.502189    0.575313    0.642386     0.007504
AU3046   AU        0.533174    0.540173    0.642684     0.007504
AU3047   AU        0.535931    0.574424    0.608004     0.007504
PD3048   PD        0.567870    0.537250    0.606770     0.005394
PD3049   PD        0.568390    0.575450    0.643969     0.005394
AU3050   AU        0.599370    0.538872    0.642488     0.007504
AU3051   AU        0.598988    0.574503    0.605041     0.007504
AU3052   AU        0.633221    0.537528    0.607721     0.007504
AU3053   AU        0.631680    0.573091    0.639851     0.007504
PD3054   PD        0.666834    0.539670    0.645511     0.005394
AU3055   AU        0.667098    0.572683    0.606139     0.007504
PD3056   PD        0.698019    0.539074    0.607508     0.005394
PD3057   PD        0.699483    0.574290    0.644094     0.005394
PD3058   PD        0.734539    0.540262    0.644160     0.005394
PD3059   PD        0.730264    0.577141    0.606727     0.005394
AU3060   AU        0.762706    0.539849    0.603235     0.007504
AU3061   AU        0.767086    0.577588    0.642000     0.007504
PD3062   PD        0.794855    0.539234    0.638836     0.005394
AU3063   AU        0.796505    0.575686    0.605089     0.007504
AU3064   AU        0.104514    0.613487    0.604815     0.007504
PD3065   PD        0.103111    0.648095    0.644266     0.005394
AU3066   AU        0.137973    0.612043    0.641404     0.007504
PD3067   PD        0.134307    0.649849    0.609887     0.005394
AU3068   AU        0.168882    0.611068    0.605481     0.007504
PD3069   PD        0.169569    0.647400    0.644046     0.005394
AU3070   AU        0.200778    0.612979    0.642008     0.007504
PD3071   PD        0.202753    0.646675    0.604723     0.005394
AU3072   AU        0.234439    0.611190    0.607509     0.007504
PD3073   PD        0.236020    0.646609    0.643630     0.005394
AU3074   AU        0.269676    0.611258    0.641800     0.007504
PD3075   PD        0.267912    0.648089    0.606527     0.005394
AU3076   AU        0.300273    0.611179    0.605924     0.007504
PD3077   PD        0.300155    0.648146    0.639297     0.005394
AU3078   AU        0.332002    0.611641    0.642072     0.007504
AU3079   AU        0.332912    0.646248    0.606670     0.007504
AU3080   AU        0.367150    0.611599    0.604980     0.007504
AU3081   AU        0.367221    0.647111    0.642185     0.007504
PD3082   PD        0.400478    0.611550    0.639909     0.005394
AU3083   AU        0.401561    0.645885    0.605222     0.007504
PD3084   PD        0.433542    0.612665    0.604673     0.005394
AU3085   AU        0.432388    0.645666    0.642632     0.007504
PD3086   PD        0.466981    0.610490    0.639273     0.005394
AU3087   AU        0.467905    0.648801    0.608361     0.007504
AU3088   AU        0.501037    0.611856    0.607735     0.007504
AU3089   AU        0.499919    0.649434    0.643191     0.007504
AU3090   AU        0.534471    0.609907    0.641369     0.007504
PD3091   PD        0.535769    0.648858    0.608210     0.005394
AU3092   AU        0.568562    0.610926    0.606696     0.007504
AU3093   AU        0.564974    0.647081    0.640857     0.007504
PD3094   PD        0.600205    0.610276    0.639768     0.005394
PD3095   PD        0.599605    0.648045    0.605306     0.005394
PD3096   PD        0.631317    0.608942    0.605354     0.005394
PD3097   PD        0.631887    0.647183    0.641585     0.005394
PD3098   PD        0.662037    0.607578    0.641281     0.005394
PD3099   PD        0.666591    0.644829    0.607478     0.005394
AU3100   AU        0.696852    0.610306    0.606056     0.007504
PD3101   PD        0.702749    0.647378    0.640433     0.005394
PD3102   PD        0.731895    0.609129    0.643239     0.005394
PD3103   PD        0.729041    0.647443    0.603792     0.005394
PD3104   PD        0.762188    0.610697    0.604434     0.005394
PD3105   PD        0.755590    0.640555    0.641650     0.005394
PD3106   PD        0.138564    0.682243    0.640234     0.005394
PD3107   PD        0.044056    0.656324    0.594243     0.005394
PD3108   PD        0.171984    0.681127    0.601881     0.005394
AU3109   AU        0.168180    0.716652    0.641522     0.007504
AU3110   AU        0.204115    0.681751    0.641931     0.007504
PD3111   PD        0.201772    0.718548    0.607665     0.005394
AU3112   AU        0.234567    0.683611    0.605032     0.007504
AU3113   AU        0.234983    0.717678    0.642290     0.007504
PD3114   PD        0.267675    0.683017    0.644666     0.005394
PD3115   PD        0.267278    0.719765    0.607066     0.005394
AU3116   AU        0.299781    0.684327    0.604310     0.007504
PD3117   PD        0.299234    0.714658    0.641292     0.005394
PD3118   PD        0.333795    0.683041    0.641836     0.005394
PD3119   PD        0.334652    0.719528    0.606666     0.005394
PD3120   PD        0.367061    0.683799    0.606973     0.005394
PD3121   PD        0.364176    0.717113    0.643435     0.005394
AU3122   AU        0.401318    0.681465    0.643633     0.007504
AU3123   AU        0.400726    0.716371    0.606920     0.007504
PD3124   PD        0.435245    0.683860    0.608434     0.005394
AU3125   AU        0.434420    0.719104    0.644064     0.007504
AU3126   AU        0.466229    0.683877    0.644517     0.007504
PD3127   PD        0.466849    0.718395    0.605156     0.005394
PD3128   PD        0.499726    0.684871    0.606141     0.005394
AU3129   AU        0.501742    0.718099    0.642961     0.007504
PD3130   PD        0.534986    0.682559    0.643942     0.005394
PD3131   PD        0.534537    0.719740    0.605350     0.005394
PD3132   PD        0.568251    0.681499    0.605439     0.005394
AU3133   AU        0.566376    0.717774    0.642293     0.007504
AU3134   AU        0.599940    0.682083    0.643459     0.007504
PD3135   PD        0.598055    0.717911    0.603886     0.005394
AU3136   AU        0.630126    0.684202    0.606344     0.007504
AU3137   AU        0.631355    0.717908    0.641455     0.007504
AU3138   AU        0.666667    0.681418    0.640259     0.007504
AU3139   AU        0.664126    0.719721    0.609569     0.007504
AU3140   AU        0.696648    0.682232    0.603937     0.007504
AU3141   AU        0.699526    0.716926    0.641644     0.007504
PD3142   PD        0.802049    0.679465    0.645779     0.005394
PD3143   PD        0.731265    0.716353    0.604130     0.005394
AU3144   AU        0.166350    0.752503    0.605525     0.007504
AU3145   AU        0.202083    0.753366    0.641380     0.007504
PD3146   PD        0.201681    0.859658    0.606645     0.005394
PD3147   PD        0.233170    0.752109    0.607981     0.005394
PD3148   PD        0.236481    0.785949    0.642047     0.005394
PD3149   PD        0.267920    0.753736    0.641275     0.005394
PD3150   PD        0.265590    0.789252    0.602858     0.005394
PD3151   PD        0.303325    0.754277    0.606305     0.005394
PD3152   PD        0.298934    0.790611    0.642539     0.005394
PD3153   PD        0.337707    0.755543    0.640909     0.005394
AU3154   AU        0.335386    0.788432    0.603721     0.007504
PD3155   PD        0.368726    0.752359    0.606809     0.005394
AU3156   AU        0.368752    0.789490    0.639638     0.007504
AU3157   AU        0.399709    0.752916    0.642915     0.007504
PD3158   PD        0.402354    0.787424    0.606258     0.005394
PD3159   PD        0.435222    0.753502    0.607082     0.005394
AU3160   AU        0.433517    0.786729    0.643895     0.007504
AU3161   AU        0.467309    0.752761    0.643999     0.007504
AU3162   AU        0.469618    0.788828    0.608043     0.007504
AU3163   AU        0.500677    0.752318    0.607378     0.007504
PD3164   PD        0.501562    0.790794    0.641899     0.005394
PD3165   PD        0.533006    0.752133    0.641350     0.005394
AU3166   AU        0.531088    0.789302    0.606366     0.007504
PD3167   PD        0.566807    0.753377    0.606079     0.005394
PD3168   PD        0.568276    0.788079    0.642108     0.005394
PD3169   PD        0.598078    0.753647    0.641480     0.005394
PD3170   PD        0.601248    0.788346    0.606814     0.005394
AU3171   AU        0.630995    0.752530    0.607965     0.007504
PD3172   PD        0.631856    0.789710    0.644026     0.005394
PD3173   PD        0.665796    0.752611    0.643484     0.005394
PD3174   PD        0.665031    0.787187    0.605645     0.005394
AU3175   AU        0.697557    0.752818    0.607286     0.007504
PD3176   PD        0.304813    0.859047    0.640213     0.005394
AU3177   AU        0.302758    0.822270    0.606558     0.007504
PD3178   PD        0.328397    0.891897    0.676713     0.005394
PD3179   PD        0.337278    0.860219    0.606610     0.005394
AU3180   AU        0.368749    0.824680    0.604504     0.007504
PD3181   PD        0.372702    0.857277    0.641323     0.005394
PD3182   PD        0.400846    0.821493    0.639902     0.005394
AU3183   AU        0.402037    0.856744    0.603989     0.007504
PD3184   PD        0.435440    0.823043    0.607140     0.005394
PD3185   PD        0.436426    0.855132    0.642077     0.005394
AU3186   AU        0.467654    0.822326    0.643953     0.007504
PD3187   PD        0.465572    0.858439    0.610549     0.005394
AU3188   AU        0.499623    0.824693    0.604847     0.007504
AU3189   AU        0.501872    0.857374    0.642533     0.007504
PD3190   PD        0.533947    0.822100    0.640411     0.005394
PD3191   PD        0.531949    0.857499    0.606707     0.005394
AU3192   AU        0.566436    0.822070    0.604796     0.007504
PD3193   PD        0.600921    0.823829    0.643746     0.005394
AU3194   AU        0.270435    0.148666    0.680553     0.007504
AU3195   AU        0.301735    0.146421    0.715215     0.007504
AU3196   AU        0.332912    0.149561    0.678552     0.007504
PD3197   PD        0.365800    0.084735    0.716942     0.005394
PD3198   PD        0.368686    0.149073    0.716159     0.005394
PD3199   PD        0.366752    0.115275    0.756676     0.005394
PD3200   PD        0.403700    0.147795    0.678625     0.005394
AU3201   AU        0.435324    0.114626    0.676999     0.007504
PD3202   PD        0.434589    0.148091    0.713784     0.005394
AU3203   AU        0.466805    0.112428    0.711411     0.007504
PD3204   PD        0.468355    0.146428    0.678669     0.005394
PD3205   PD        0.500881    0.113865    0.677956     0.005394
PD3206   PD        0.502253    0.149550    0.712355     0.005394
AU3207   AU        0.535051    0.148108    0.676714     0.007504
PD3208   PD        0.567486    0.146799    0.712977     0.005394
PD3209   PD        0.600366    0.148923    0.679627     0.005394
AU3210   AU        0.204341    0.218159    0.676929     0.007504
AU3211   AU        0.236635    0.184461    0.678885     0.007504
AU3212   AU        0.237772    0.218484    0.712668     0.007504
AU3213   AU        0.270660    0.183310    0.714349     0.007504
AU3214   AU        0.270540    0.216798    0.677298     0.007504
AU3215   AU        0.301465    0.184755    0.679682     0.007504
PD3216   PD        0.304629    0.216821    0.715766     0.005394
AU3217   AU        0.335810    0.181644    0.714038     0.007504
AU3218   AU        0.333214    0.217945    0.678487     0.007504
PD3219   PD        0.368088    0.180500    0.675892     0.005394
PD3220   PD        0.370122    0.217786    0.709992     0.005394
AU3221   AU        0.404242    0.183921    0.714747     0.007504
PD3222   PD        0.402381    0.219178    0.678431     0.005394
AU3223   AU        0.436650    0.182310    0.679009     0.007504
AU3224   AU        0.438643    0.221251    0.713541     0.007504
AU3225   AU        0.470271    0.184844    0.712348     0.007504
AU3226   AU        0.470250    0.219441    0.679618     0.007504
AU3227   AU        0.502849    0.182595    0.677647     0.007504
AU3228   AU        0.503473    0.219060    0.712005     0.007504
AU3229   AU        0.536103    0.185270    0.714438     0.007504
AU3230   AU        0.538822    0.219439    0.678744     0.007504
AU3231   AU        0.569147    0.184162    0.681221     0.007504
AU3232   AU        0.568683    0.220832    0.713348     0.007504
PD3233   PD        0.603109    0.183002    0.712433     0.005394
AU3234   AU        0.601646    0.219802    0.678166     0.007504
PD3235   PD        0.633045    0.182388    0.678848     0.005394
PD3236   PD        0.636512    0.216403    0.713714     0.005394
PD3237   PD        0.669506    0.221950    0.676780     0.005394
PD3238   PD        0.136101    0.288620    0.677081     0.005394
AU3239   AU        0.172837    0.253860    0.675815     0.007504
PD3240   PD        0.166659    0.286598    0.713762     0.005394
PD3241   PD        0.204664    0.250423    0.715768     0.005394
AU3242   AU        0.204938    0.288044    0.678461     0.007504
PD3243   PD        0.239215    0.253124    0.678262     0.005394
AU3244   AU        0.237113    0.287096    0.714102     0.007504
AU3245   AU        0.270808    0.250469    0.714603     0.007504
AU3246   AU        0.268961    0.287754    0.678709     0.007504
AU3247   AU        0.302203    0.252963    0.678552     0.007504
PD3248   PD        0.301806    0.287583    0.715948     0.005394
PD3249   PD        0.333865    0.253282    0.714142     0.005394
AU3250   AU        0.334119    0.286829    0.678258     0.007504
AU3251   AU        0.368057    0.252386    0.676557     0.007504
PD3252   PD        0.365384    0.288449    0.712515     0.005394
PD3253   PD        0.402075    0.251506    0.714367     0.005394
AU3254   AU        0.402122    0.288023    0.677371     0.007504
AU3255   AU        0.436089    0.252032    0.676647     0.007504
PD3256   PD        0.435034    0.289715    0.714266     0.005394
PD3257   PD        0.468542    0.255526    0.713380     0.005394
AU3258   AU        0.469861    0.289465    0.679450     0.007504
AU3259   AU        0.502367    0.254137    0.680264     0.007504
PD3260   PD        0.502264    0.290430    0.714265     0.005394
AU3261   AU        0.534682    0.255597    0.712999     0.007504
PD3262   PD        0.537235    0.289189    0.678515     0.005394
AU3263   AU        0.568755    0.255132    0.679000     0.007504
PD3264   PD        0.569673    0.292134    0.712983     0.005394
AU3265   AU        0.602684    0.254305    0.715964     0.007504
PD3266   PD        0.601601    0.288880    0.677432     0.005394
PD3267   PD        0.635605    0.255461    0.679354     0.005394
AU3268   AU        0.635752    0.289932    0.715530     0.007504
AU3269   AU        0.670196    0.256791    0.714368     0.007504
PD3270   PD        0.668006    0.292923    0.677904     0.005394
PD3271   PD        0.702323    0.254424    0.678025     0.005394
PD3272   PD        0.700619    0.292645    0.712017     0.005394
PD3273   PD        0.738306    0.295604    0.676425     0.005394
PD3274   PD        0.138263    0.324579    0.714002     0.005394
PD3275   PD        0.133423    0.363763    0.677328     0.005394
AU3276   AU        0.170002    0.322246    0.676901     0.007504
PD3277   PD        0.168739    0.358768    0.714525     0.005394
AU3278   AU        0.200567    0.324794    0.713536     0.007504
AU3279   AU        0.201305    0.359543    0.679095     0.007504
PD3280   PD        0.236124    0.323000    0.678456     0.005394
AU3281   AU        0.235317    0.358717    0.714611     0.007504
AU3282   AU        0.269299    0.324877    0.713725     0.007504
PD3283   PD        0.266312    0.361030    0.677464     0.005394
PD3284   PD        0.303009    0.326581    0.679637     0.005394
PD3285   PD        0.301834    0.356641    0.714258     0.005394
PD3286   PD        0.334900    0.323575    0.714970     0.005394
PD3287   PD        0.335131    0.361744    0.678329     0.005394
PD3288   PD        0.369768    0.320947    0.679166     0.005394
PD3289   PD        0.370996    0.358692    0.714614     0.005394
AU3290   AU        0.399654    0.322917    0.715483     0.007504
AU3291   AU        0.402739    0.359768    0.677089     0.007504
AU3292   AU        0.435239    0.325537    0.677134     0.007504
AU3293   AU        0.434466    0.359463    0.713529     0.007504
AU3294   AU        0.466668    0.322258    0.712648     0.007504
AU3295   AU        0.469030    0.360186    0.675480     0.007504
PD3296   PD        0.501425    0.325015    0.679472     0.005394
AU3297   AU        0.502213    0.359395    0.713616     0.007504
AU3298   AU        0.536608    0.324471    0.713578     0.007504
AU3299   AU        0.533889    0.362080    0.679949     0.007504
PD3300   PD        0.571115    0.326643    0.678886     0.005394
AU3301   AU        0.570531    0.361549    0.712203     0.007504
AU3302   AU        0.602683    0.326504    0.712169     0.007504
AU3303   AU        0.601267    0.362508    0.677109     0.007504
PD3304   PD        0.635679    0.324894    0.679754     0.005394
AU3305   AU        0.634594    0.361677    0.713014     0.007504
AU3306   AU        0.668079    0.326242    0.713873     0.007504
PD3307   PD        0.669852    0.362778    0.675826     0.005394
AU3308   AU        0.699774    0.328770    0.677591     0.007504
AU3309   AU        0.702382    0.363211    0.712069     0.007504
PD3310   PD        0.733579    0.329062    0.711266     0.005394
AU3311   AU        0.735614    0.362173    0.678198     0.007504
PD3312   PD        0.102430    0.399640    0.672957     0.005394
PD3313   PD        0.098118    0.425042    0.711355     0.005394
PD3314   PD        0.136094    0.393556    0.712756     0.005394
PD3315   PD        0.135669    0.432293    0.677370     0.005394
PD3316   PD        0.170708    0.393886    0.676444     0.005394
AU3317   AU        0.169488    0.430904    0.712994     0.007504
PD3318   PD        0.202435    0.394441    0.714674     0.005394
PD3319   PD        0.201798    0.433914    0.677552     0.005394
AU3320   AU        0.236379    0.395219    0.679520     0.007504
PD3321   PD        0.237210    0.431017    0.714129     0.005394
PD3322   PD        0.271499    0.392221    0.711569     0.005394
PD3323   PD        0.270930    0.431107    0.679660     0.005394
PD3324   PD        0.302156    0.397428    0.675639     0.005394
AU3325   AU        0.299752    0.431568    0.715031     0.007504
PD3326   PD        0.337065    0.396579    0.713683     0.005394
AU3327   AU        0.333351    0.433013    0.680570     0.007504
PD3328   PD        0.367596    0.394536    0.678005     0.005394
PD3329   PD        0.368512    0.433423    0.711264     0.005394
AU3330   AU        0.400561    0.396315    0.712592     0.007504
PD3331   PD        0.401923    0.431748    0.677138     0.005394
AU3332   AU        0.437693    0.395429    0.677445     0.007504
PD3333   PD        0.435675    0.431364    0.713336     0.005394
AU3334   AU        0.469623    0.396916    0.715196     0.007504
AU3335   AU        0.469569    0.431715    0.678251     0.007504
AU3336   AU        0.502327    0.398725    0.677717     0.007504
AU3337   AU        0.503194    0.432598    0.712146     0.007504
AU3338   AU        0.535195    0.397743    0.714026     0.007504
AU3339   AU        0.536083    0.436327    0.677699     0.007504
PD3340   PD        0.567725    0.400726    0.680420     0.005394
PD3341   PD        0.570301    0.432635    0.712244     0.005394
PD3342   PD        0.600751    0.398190    0.713270     0.005394
PD3343   PD        0.601981    0.434430    0.679891     0.005394
AU3344   AU        0.634094    0.398132    0.678901     0.007504
AU3345   AU        0.633864    0.433797    0.713615     0.007504
AU3346   AU        0.667101    0.398999    0.711644     0.007504
AU3347   AU        0.666588    0.435688    0.677632     0.007504
AU3348   AU        0.700030    0.399543    0.678261     0.007504
AU3349   AU        0.700938    0.432428    0.714409     0.007504
AU3350   AU        0.734478    0.399511    0.713878     0.007504
PD3351   PD        0.733351    0.434106    0.678431     0.005394
AU3352   AU        0.764924    0.400617    0.675052     0.007504
PD3353   PD        0.765735    0.433540    0.712718     0.005394
AU3354   AU        0.103036    0.465942    0.680842     0.007504
PD3355   PD        0.100263    0.505517    0.709352     0.005394
PD3356   PD        0.135839    0.475737    0.716284     0.005394
PD3357   PD        0.134485    0.503950    0.676490     0.005394
PD3358   PD        0.165718    0.466502    0.674935     0.005394
PD3359   PD        0.171016    0.505848    0.712373     0.005394
PD3360   PD        0.202143    0.465004    0.712913     0.005394
PD3361   PD        0.201403    0.504490    0.679226     0.005394
PD3362   PD        0.234664    0.468189    0.677078     0.005394
PD3363   PD        0.234228    0.503755    0.712903     0.005394
PD3364   PD        0.270691    0.468149    0.716701     0.005394
PD3365   PD        0.268351    0.503276    0.679007     0.005394
PD3366   PD        0.301470    0.469153    0.681406     0.005394
AU3367   AU        0.301084    0.506623    0.716481     0.007504
PD3368   PD        0.335552    0.468690    0.713424     0.005394
PD3369   PD        0.331995    0.505109    0.678020     0.005394
PD3370   PD        0.367366    0.471007    0.676559     0.005394
PD3371   PD        0.365730    0.504227    0.709557     0.005394
PD3372   PD        0.400736    0.466726    0.713390     0.005394
AU3373   AU        0.402173    0.503797    0.678407     0.007504
PD3374   PD        0.434753    0.463515    0.676520     0.005394
PD3375   PD        0.437138    0.504805    0.712116     0.005394
AU3376   AU        0.469343    0.469212    0.713559     0.007504
PD3377   PD        0.468159    0.504650    0.677353     0.005394
AU3378   AU        0.501936    0.467819    0.678634     0.007504
AU3379   AU        0.501708    0.506194    0.712892     0.007504
PD3380   PD        0.532574    0.469550    0.713859     0.005394
PD3381   PD        0.534562    0.503553    0.677705     0.005394
PD3382   PD        0.567058    0.470732    0.678749     0.005394
AU3383   AU        0.568104    0.504657    0.713390     0.007504
AU3384   AU        0.601322    0.469392    0.712596     0.007504
PD3385   PD        0.599586    0.503786    0.677693     0.005394
AU3386   AU        0.633291    0.468645    0.678776     0.007504
AU3387   AU        0.632746    0.504757    0.713049     0.007504
AU3388   AU        0.665964    0.468527    0.713621     0.007504
AU3389   AU        0.665405    0.505479    0.680761     0.007504
PD3390   PD        0.699371    0.467648    0.680995     0.005394
AU3391   AU        0.700222    0.500320    0.714986     0.007504
AU3392   AU        0.732653    0.469088    0.714793     0.007504
PD3393   PD        0.732899    0.503947    0.675826     0.005394
AU3394   AU        0.764707    0.469000    0.678109     0.007504
PD3395   PD        0.763988    0.504375    0.712777     0.005394
PD3396   PD        0.103897    0.541962    0.677088     0.005394
PD3397   PD        0.135042    0.539001    0.712430     0.005394
PD3398   PD        0.135054    0.580054    0.677292     0.005394
PD3399   PD        0.167152    0.546242    0.677147     0.005394
PD3400   PD        0.171456    0.579127    0.710853     0.005394
AU3401   AU        0.201433    0.540575    0.711419     0.007504
AU3402   AU        0.202515    0.577845    0.677595     0.007504
PD3403   PD        0.234263    0.539698    0.676952     0.005394
AU3404   AU        0.235546    0.575152    0.712728     0.007504
PD3405   PD        0.266806    0.539985    0.714419     0.005394
AU3406   AU        0.269271    0.578173    0.677527     0.007504
AU3407   AU        0.301737    0.540727    0.678986     0.007504
AU3408   AU        0.302843    0.577439    0.713491     0.007504
AU3409   AU        0.335902    0.541099    0.715245     0.007504
AU3410   AU        0.334582    0.575128    0.680425     0.007504
PD3411   PD        0.367005    0.541491    0.677744     0.005394
AU3412   AU        0.368363    0.577915    0.712961     0.007504
PD3413   PD        0.401526    0.542077    0.713025     0.005394
PD3414   PD        0.402702    0.577387    0.677322     0.005394
AU3415   AU        0.435464    0.542123    0.677364     0.007504
AU3416   AU        0.435940    0.575452    0.712270     0.007504
AU3417   AU        0.469629    0.542252    0.713323     0.007504
PD3418   PD        0.467811    0.575489    0.678070     0.005394
AU3419   AU        0.502208    0.538243    0.677068     0.007504
AU3420   AU        0.502050    0.575572    0.712220     0.007504
AU3421   AU        0.535216    0.540143    0.712728     0.007504
AU3422   AU        0.537173    0.575565    0.677785     0.007504
AU3423   AU        0.568180    0.539896    0.678609     0.007504
AU3424   AU        0.567948    0.577885    0.712810     0.007504
AU3425   AU        0.599567    0.541141    0.715252     0.007504
AU3426   AU        0.601182    0.575716    0.678653     0.007504
AU3427   AU        0.632248    0.539797    0.677673     0.007504
PD3428   PD        0.633386    0.573673    0.714129     0.005394
PD3429   PD        0.665825    0.537200    0.714163     0.005394
PD3430   PD        0.665299    0.573249    0.675877     0.005394
PD3431   PD        0.700390    0.539829    0.679403     0.005394
PD3432   PD        0.699468    0.577306    0.713790     0.005394
PD3433   PD        0.732225    0.536307    0.712167     0.005394
PD3434   PD        0.733903    0.573739    0.677601     0.005394
PD3435   PD        0.797111    0.576214    0.669414     0.005394
PD3436   PD        0.131582    0.610749    0.712550     0.005394
PD3437   PD        0.137028    0.648353    0.675848     0.005394
PD3438   PD        0.168889    0.611526    0.675875     0.005394
PD3439   PD        0.169058    0.646376    0.710933     0.005394
PD3440   PD        0.202715    0.613702    0.712125     0.005394
AU3441   AU        0.203107    0.646673    0.678581     0.007504
AU3442   AU        0.234845    0.612888    0.676926     0.007504
AU3443   AU        0.234698    0.646667    0.713548     0.007504
AU3444   AU        0.267843    0.609819    0.714931     0.007504
AU3445   AU        0.267193    0.646840    0.676801     0.007504
AU3446   AU        0.303430    0.610422    0.679563     0.007504
AU3447   AU        0.300868    0.647168    0.713006     0.007504
AU3448   AU        0.336837    0.612982    0.713083     0.007504
PD3449   PD        0.331949    0.649042    0.677294     0.005394
PD3450   PD        0.370317    0.611255    0.678119     0.005394
PD3451   PD        0.369017    0.648294    0.714875     0.005394
AU3452   AU        0.402178    0.610881    0.713398     0.007504
AU3453   AU        0.400826    0.647094    0.678687     0.007504
PD3454   PD        0.434828    0.611716    0.677118     0.005394
PD3455   PD        0.433317    0.648215    0.713858     0.005394
PD3456   PD        0.467189    0.612362    0.713858     0.005394
AU3457   AU        0.466707    0.647312    0.679791     0.007504
PD3458   PD        0.500562    0.608371    0.677595     0.005394
PD3459   PD        0.501332    0.648607    0.713652     0.005394
PD3460   PD        0.536107    0.612762    0.710842     0.005394
PD3461   PD        0.532601    0.649409    0.678521     0.005394
PD3462   PD        0.568420    0.611450    0.677856     0.005394
PD3463   PD        0.567855    0.645224    0.716656     0.005394
PD3464   PD        0.601212    0.611609    0.715759     0.005394
PD3465   PD        0.598805    0.646934    0.677559     0.005394
PD3466   PD        0.632955    0.610232    0.673963     0.005394
PD3467   PD        0.635741    0.644209    0.713884     0.005394
PD3468   PD        0.664839    0.615429    0.718168     0.005394
AU3469   AU        0.665812    0.643540    0.673391     0.007504
PD3470   PD        0.698514    0.610086    0.674962     0.005394
AU3471   AU        0.699784    0.645243    0.710131     0.007504
PD3472   PD        0.774279    0.561626    0.746292     0.005394
PD3473   PD        0.727276    0.684491    0.716342     0.005394
PD3474   PD        0.170774    0.679792    0.675082     0.005394
AU3475   AU        0.204098    0.681194    0.711850     0.007504
AU3476   AU        0.203194    0.717315    0.678288     0.007504
AU3477   AU        0.236182    0.681813    0.678484     0.007504
PD3478   PD        0.236330    0.718334    0.714213     0.005394
AU3479   AU        0.267691    0.683633    0.713576     0.007504
PD3480   PD        0.265360    0.719459    0.676729     0.005394
PD3481   PD        0.300160    0.682306    0.677820     0.005394
AU3482   AU        0.301226    0.720243    0.714356     0.007504
PD3483   PD        0.334972    0.681945    0.714151     0.005394
AU3484   AU        0.333489    0.717083    0.678818     0.007504
AU3485   AU        0.367380    0.681497    0.676412     0.007504
PD3486   PD        0.368645    0.717806    0.713857     0.005394
PD3487   PD        0.399622    0.683736    0.710866     0.005394
AU3488   AU        0.400347    0.717802    0.676521     0.007504
PD3489   PD        0.435694    0.681776    0.677827     0.005394
PD3490   PD        0.434430    0.716345    0.711606     0.005394
AU3491   AU        0.466915    0.682645    0.713072     0.007504
PD3492   PD        0.466913    0.719172    0.678064     0.005394
AU3493   AU        0.499612    0.684024    0.679689     0.007504
PD3494   PD        0.501160    0.718429    0.715415     0.005394
PD3495   PD        0.535531    0.684612    0.713011     0.005394
AU3496   AU        0.530807    0.717979    0.681279     0.007504
PD3497   PD        0.566536    0.685350    0.680305     0.005394
AU3498   AU        0.569660    0.715360    0.710857     0.007504
PD3499   PD        0.601629    0.678631    0.714051     0.005394
PD3500   PD        0.599169    0.718496    0.676504     0.005394
AU3501   AU        0.634286    0.681420    0.675867     0.007504
AU3502   AU        0.630883    0.716626    0.711051     0.007504
PD3503   PD        0.665311    0.682156    0.711074     0.005394
AU3504   AU        0.665803    0.717660    0.676372     0.007504
PD3505   PD        0.697667    0.683362    0.675676     0.005394
PD3506   PD        0.233913    0.752819    0.677452     0.005394
PD3507   PD        0.271402    0.755097    0.711439     0.005394
PD3508   PD        0.267663    0.792167    0.679788     0.005394
AU3509   AU        0.301907    0.753152    0.673572     0.007504
PD3510   PD        0.327463    0.823257    0.718518     0.005394
PD3511   PD        0.334601    0.756399    0.711736     0.005394
PD3512   PD        0.332818    0.791533    0.678313     0.005394
PD3513   PD        0.365741    0.752438    0.676757     0.005394
PD3514   PD        0.367322    0.790551    0.711789     0.005394
PD3515   PD        0.399082    0.756187    0.710418     0.005394
PD3516   PD        0.398442    0.788233    0.676276     0.005394
AU3517   AU        0.434438    0.752671    0.677915     0.007504
PD3518   PD        0.435970    0.786850    0.712479     0.005394
PD3519   PD        0.466125    0.751407    0.712801     0.005394
PD3520   PD        0.465260    0.787630    0.677098     0.005394
AU3521   AU        0.501797    0.754137    0.678531     0.007504
AU3522   AU        0.502061    0.789205    0.714520     0.007504
AU3523   AU        0.533045    0.754374    0.713689     0.007504
PD3524   PD        0.533268    0.790294    0.678574     0.005394
AU3525   AU        0.564533    0.752154    0.677590     0.007504
PD3526   PD        0.564496    0.788230    0.712863     0.005394
AU3527   AU        0.597844    0.755119    0.712406     0.007504
PD3528   PD        0.598072    0.788182    0.678857     0.005394
PD3529   PD        0.632803    0.752400    0.676685     0.005394
PD3530   PD        0.352574    0.852483    0.688427     0.005394
PD3531   PD        0.402409    0.824104    0.715173     0.005394
PD3532   PD        0.436225    0.824619    0.679544     0.005394
PD3533   PD        0.466725    0.821453    0.713477     0.005394
AU3534   AU        0.501332    0.824620    0.678454     0.007504
AU3535   AU        0.404194    0.149175    0.747859     0.007504
AU3536   AU        0.469255    0.150638    0.747515     0.007504
AU3537   AU        0.270146    0.216446    0.749955     0.007504
PD3538   PD        0.305430    0.183703    0.750476     0.005394
PD3539   PD        0.303126    0.218210    0.786047     0.005394
PD3540   PD        0.338077    0.217634    0.748686     0.005394
PD3541   PD        0.369997    0.183130    0.750591     0.005394
PD3542   PD        0.369220    0.219458    0.785145     0.005394
PD3543   PD        0.402523    0.186608    0.784600     0.005394
PD3544   PD        0.401097    0.219019    0.747332     0.005394
AU3545   AU        0.435867    0.184313    0.749148     0.007504
PD3546   PD        0.435245    0.219035    0.784001     0.005394
PD3547   PD        0.466956    0.182260    0.785568     0.005394
AU3548   AU        0.470235    0.218754    0.749023     0.007504
AU3549   AU        0.502611    0.183209    0.746945     0.007504
AU3550   AU        0.500900    0.217534    0.784647     0.007504
AU3551   AU        0.534913    0.218785    0.748779     0.007504
AU3552   AU        0.567926    0.183768    0.748583     0.007504
PD3553   PD        0.564120    0.219031    0.788821     0.005394
PD3554   PD        0.637376    0.221651    0.784410     0.005394
PD3555   PD        0.131560    0.287065    0.745776     0.005394
PD3556   PD        0.236760    0.251024    0.749433     0.005394
PD3557   PD        0.200841    0.288826    0.747232     0.005394
AU3558   AU        0.270143    0.252465    0.783297     0.007504
AU3559   AU        0.268232    0.286994    0.749935     0.007504
AU3560   AU        0.302393    0.254171    0.749244     0.007504
AU3561   AU        0.302419    0.288274    0.785206     0.007504
AU3562   AU        0.333758    0.254311    0.785619     0.007504
AU3563   AU        0.334572    0.287996    0.750614     0.007504
AU3564   AU        0.367897    0.252184    0.750615     0.007504
AU3565   AU        0.369743    0.287883    0.784539     0.007504
AU3566   AU        0.403553    0.255338    0.784760     0.007504
AU3567   AU        0.400480    0.287794    0.748437     0.007504
AU3568   AU        0.436096    0.252040    0.749710     0.007504
PD3569   PD        0.436055    0.290666    0.783588     0.005394
PD3570   PD        0.470682    0.255215    0.782669     0.005394
AU3571   AU        0.470231    0.290424    0.750856     0.007504
AU3572   AU        0.502245    0.254811    0.747943     0.007504
PD3573   PD        0.502365    0.290032    0.782402     0.005394
AU3574   AU        0.533594    0.255614    0.782528     0.007504
AU3575   AU        0.535101    0.290506    0.749261     0.007504
AU3576   AU        0.567188    0.255384    0.751064     0.007504
AU3577   AU        0.570492    0.292096    0.785486     0.007504
AU3578   AU        0.599421    0.253932    0.786136     0.007504
PD3579   PD        0.602231    0.289965    0.748519     0.005394
PD3580   PD        0.634756    0.256788    0.749969     0.005394
PD3581   PD        0.631586    0.289064    0.785942     0.005394
AU3582   AU        0.667214    0.292566    0.748239     0.007504
PD3583   PD        0.167535    0.325234    0.748247     0.005394
PD3584   PD        0.204524    0.321727    0.783940     0.005394
AU3585   AU        0.200541    0.362119    0.749530     0.007504
AU3586   AU        0.235732    0.323122    0.747507     0.007504
PD3587   PD        0.232908    0.358313    0.782054     0.005394
PD3588   PD        0.269116    0.326335    0.785600     0.005394
AU3589   AU        0.269934    0.359798    0.750664     0.007504
AU3590   AU        0.301607    0.321909    0.751040     0.007504
AU3591   AU        0.302855    0.360302    0.784148     0.007504
AU3592   AU        0.334835    0.322051    0.785682     0.007504
PD3593   PD        0.335989    0.360139    0.749542     0.005394
AU3594   AU        0.367281    0.321979    0.749618     0.007504
PD3595   PD        0.369476    0.357739    0.785418     0.005394
PD3596   PD        0.402110    0.320377    0.784243     0.005394
PD3597   PD        0.401297    0.361936    0.751506     0.005394
PD3598   PD        0.436351    0.326313    0.749032     0.005394
PD3599   PD        0.435242    0.362421    0.782567     0.005394
PD3600   PD        0.465508    0.328318    0.782640     0.005394
PD3601   PD        0.468019    0.359558    0.745324     0.005394
AU3602   AU        0.503363    0.326552    0.749239     0.007504
PD3603   PD        0.500963    0.357453    0.783664     0.005394
AU3604   AU        0.536555    0.325561    0.783062     0.007504
AU3605   AU        0.535959    0.362888    0.746758     0.007504
PD3606   PD        0.568582    0.328037    0.748210     0.005394
PD3607   PD        0.565587    0.362877    0.784953     0.005394
PD3608   PD        0.598491    0.327134    0.783428     0.005394
PD3609   PD        0.603393    0.363349    0.750144     0.005394
AU3610   AU        0.634081    0.324080    0.749854     0.007504
PD3611   PD        0.666898    0.362961    0.815415     0.005394
PD3612   PD        0.673007    0.326680    0.781313     0.005394
PD3613   PD        0.667462    0.364046    0.747050     0.005394
PD3614   PD        0.700603    0.327897    0.750792     0.005394
PD3615   PD        0.139185    0.435399    0.745401     0.005394
PD3616   PD        0.168206    0.395285    0.748661     0.005394
PD3617   PD        0.170200    0.432114    0.781221     0.005394
AU3618   AU        0.201309    0.397735    0.783671     0.007504
AU3619   AU        0.201421    0.432080    0.748614     0.007504
PD3620   PD        0.237748    0.394608    0.746754     0.005394
PD3621   PD        0.233586    0.433456    0.782152     0.005394
PD3622   PD        0.266652    0.394279    0.785310     0.005394
PD3623   PD        0.269173    0.430920    0.751632     0.005394
PD3624   PD        0.302828    0.396917    0.750878     0.005394
PD3625   PD        0.302189    0.431857    0.784359     0.005394
PD3626   PD        0.334408    0.394292    0.785022     0.005394
AU3627   AU        0.336013    0.433312    0.749308     0.007504
PD3628   PD        0.368289    0.396222    0.747704     0.005394
PD3629   PD        0.367455    0.431883    0.784071     0.005394
PD3630   PD        0.400063    0.396851    0.785653     0.005394
PD3631   PD        0.401854    0.430191    0.750302     0.005394
PD3632   PD        0.437496    0.397636    0.748638     0.005394
PD3633   PD        0.436353    0.433542    0.785558     0.005394
AU3634   AU        0.469240    0.394952    0.783435     0.007504
PD3635   PD        0.471329    0.432497    0.748779     0.005394
AU3636   AU        0.501071    0.395735    0.749088     0.007504
AU3637   AU        0.500428    0.432814    0.783247     0.007504
PD3638   PD        0.533762    0.394840    0.784423     0.005394
PD3639   PD        0.537767    0.432667    0.748169     0.005394
PD3640   PD        0.568891    0.399778    0.748427     0.005394
AU3641   AU        0.565932    0.434141    0.786136     0.007504
PD3642   PD        0.602623    0.401110    0.785472     0.005394
PD3643   PD        0.598255    0.432350    0.751727     0.005394
AU3644   AU        0.632501    0.399022    0.748502     0.007504
PD3645   PD        0.631953    0.435851    0.785939     0.005394
AU3646   AU        0.667145    0.398418    0.782695     0.007504
AU3647   AU        0.666208    0.433355    0.748781     0.007504
PD3648   PD        0.700792    0.399964    0.751529     0.005394
PD3649   PD        0.700696    0.435485    0.786246     0.005394
PD3650   PD        0.734424    0.434972    0.748007     0.005394
PD3651   PD        0.135925    0.543620    0.787216     0.005394
PD3652   PD        0.171950    0.469755    0.748190     0.005394
PD3653   PD        0.166219    0.505749    0.781031     0.005394
PD3654   PD        0.199580    0.468743    0.784614     0.005394
PD3655   PD        0.204884    0.507407    0.747057     0.005394
PD3656   PD        0.235426    0.469546    0.750399     0.005394
PD3657   PD        0.236546    0.505487    0.783841     0.005394
AU3658   AU        0.267284    0.469951    0.784947     0.007504
PD3659   PD        0.265526    0.507335    0.748806     0.005394
PD3660   PD        0.300152    0.466519    0.752946     0.005394
AU3661   AU        0.300286    0.506923    0.782660     0.007504
PD3662   PD        0.332892    0.468136    0.783711     0.005394
AU3663   AU        0.334720    0.503126    0.750012     0.007504
PD3664   PD        0.367828    0.470515    0.751153     0.005394
PD3665   PD        0.366847    0.507135    0.783872     0.005394
PD3666   PD        0.400460    0.469293    0.786629     0.005394
PD3667   PD        0.399668    0.504670    0.748959     0.005394
PD3668   PD        0.434109    0.468815    0.751053     0.005394
AU3669   AU        0.435582    0.505737    0.785288     0.007504
PD3670   PD        0.467794    0.469738    0.783893     0.005394
AU3671   AU        0.468607    0.506619    0.748805     0.007504
AU3672   AU        0.502680    0.469458    0.749148     0.007504
PD3673   PD        0.500470    0.506909    0.784590     0.005394
AU3674   AU        0.535370    0.469536    0.785412     0.007504
AU3675   AU        0.534040    0.505457    0.748662     0.007504
PD3676   PD        0.568382    0.469499    0.749156     0.005394
PD3677   PD        0.567249    0.503337    0.786052     0.005394
PD3678   PD        0.598724    0.468918    0.786070     0.005394
PD3679   PD        0.601443    0.504813    0.748626     0.005394
AU3680   AU        0.632829    0.468695    0.750795     0.007504
PD3681   PD        0.635078    0.505562    0.783814     0.005394
PD3682   PD        0.668375    0.469701    0.784102     0.005394
PD3683   PD        0.665674    0.504282    0.748055     0.005394
AU3684   AU        0.700619    0.467222    0.749809     0.007504
PD3685   PD        0.696784    0.505721    0.785992     0.005394
AU3686   AU        0.731590    0.503214    0.749878     0.007504
AU3687   AU        0.170218    0.542743    0.746936     0.007504
AU3688   AU        0.202415    0.539993    0.783703     0.007504
AU3689   AU        0.203154    0.574076    0.746803     0.007504
PD3690   PD        0.235164    0.539814    0.747345     0.005394
PD3691   PD        0.233837    0.577850    0.783848     0.005394
AU3692   AU        0.268437    0.541622    0.785127     0.007504
AU3693   AU        0.266279    0.577964    0.749793     0.007504
AU3694   AU        0.298837    0.543519    0.748527     0.007504
PD3695   PD        0.301045    0.575901    0.782299     0.005394
PD3696   PD        0.335977    0.542824    0.783556     0.005394
AU3697   AU        0.336067    0.576724    0.748988     0.007504
PD3698   PD        0.365323    0.537922    0.751186     0.005394
AU3699   AU        0.368873    0.575829    0.783883     0.007504
PD3700   PD        0.403383    0.540192    0.784146     0.005394
AU3701   AU        0.401818    0.574754    0.749559     0.007504
PD3702   PD        0.436391    0.540954    0.747740     0.005394
AU3703   AU        0.433423    0.576220    0.784876     0.007504
PD3704   PD        0.470530    0.541717    0.783610     0.005394
PD3705   PD        0.468987    0.576809    0.750147     0.005394
AU3706   AU        0.501371    0.540025    0.748651     0.007504
PD3707   PD        0.501910    0.574624    0.783789     0.005394
PD3708   PD        0.531403    0.538891    0.783196     0.005394
AU3709   AU        0.534465    0.576229    0.746319     0.007504
PD3710   PD        0.567676    0.540530    0.748374     0.005394
AU3711   AU        0.565553    0.576193    0.783577     0.007504
PD3712   PD        0.599471    0.542995    0.785598     0.005394
PD3713   PD        0.599419    0.575597    0.749488     0.005394
AU3714   AU        0.631972    0.539757    0.749480     0.007504
PD3715   PD        0.632576    0.573531    0.784874     0.005394
PD3716   PD        0.668697    0.543815    0.785415     0.005394
PD3717   PD        0.667253    0.576943    0.749433     0.005394
PD3718   PD        0.698506    0.537358    0.749583     0.005394
PD3719   PD        0.169340    0.611346    0.745036     0.005394
PD3720   PD        0.200144    0.615840    0.782180     0.005394
PD3721   PD        0.201532    0.650184    0.751371     0.005394
AU3722   AU        0.233263    0.613576    0.747335     0.007504
PD3723   PD        0.235350    0.647863    0.784473     0.005394
AU3724   AU        0.269543    0.612339    0.782728     0.007504
AU3725   AU        0.265783    0.647478    0.747817     0.007504
PD3726   PD        0.302345    0.613979    0.747448     0.005394
PD3727   PD        0.301260    0.649252    0.780669     0.005394
PD3728   PD        0.335671    0.610322    0.783517     0.005394
PD3729   PD        0.334966    0.648037    0.749822     0.005394
PD3730   PD        0.370301    0.610545    0.749711     0.005394
AU3731   AU        0.368922    0.647081    0.783740     0.007504
PD3732   PD        0.401789    0.614297    0.784458     0.005394
AU3733   AU        0.401592    0.647170    0.749234     0.007504
AU3734   AU        0.431645    0.611845    0.748920     0.007504
AU3735   AU        0.433713    0.648268    0.781496     0.007504
AU3736   AU        0.468374    0.612926    0.784692     0.007504
PD3737   PD        0.465679    0.645359    0.746443     0.005394
PD3738   PD        0.500745    0.608703    0.750758     0.005394
AU3739   AU        0.499522    0.646736    0.784556     0.007504
PD3740   PD        0.534369    0.612420    0.785116     0.005394
PD3741   PD        0.529938    0.644491    0.748234     0.005394
PD3742   PD        0.564451    0.610526    0.749184     0.005394
AU3743   AU        0.568650    0.646531    0.781620     0.007504
PD3744   PD        0.598579    0.610581    0.782894     0.005394
PD3745   PD        0.600838    0.646248    0.748064     0.005394
PD3746   PD        0.632148    0.607304    0.747928     0.005394
AU3747   AU        0.631975    0.644459    0.784967     0.007504
PD3748   PD        0.666625    0.610571    0.783557     0.005394
PD3749   PD        0.663205    0.645852    0.745185     0.005394
PD3750   PD        0.699245    0.613576    0.749430     0.005394
AU3751   AU        0.235981    0.683926    0.750392     0.007504
AU3752   AU        0.269034    0.684815    0.782355     0.007504
PD3753   PD        0.268151    0.720933    0.746666     0.005394
AU3754   AU        0.300743    0.684217    0.746168     0.007504
PD3755   PD        0.303098    0.719316    0.779876     0.005394
AU3756   AU        0.332785    0.682490    0.784829     0.007504
PD3757   PD        0.338094    0.717696    0.746787     0.005394
PD3758   PD        0.369365    0.682611    0.749455     0.005394
PD3759   PD        0.367363    0.717513    0.784285     0.005394
PD3760   PD        0.400511    0.686533    0.787468     0.005394
PD3761   PD        0.401258    0.716961    0.747973     0.005394
PD3762   PD        0.432746    0.682031    0.749876     0.005394
PD3763   PD        0.429527    0.718224    0.780490     0.005394
PD3764   PD        0.468868    0.685136    0.784905     0.005394
AU3765   AU        0.466170    0.716749    0.749222     0.007504
AU3766   AU        0.501971    0.683078    0.747513     0.007504
AU3767   AU        0.501461    0.720174    0.782548     0.007504
PD3768   PD        0.534341    0.681856    0.782746     0.005394
AU3769   AU        0.534118    0.718829    0.749056     0.007504
PD3770   PD        0.568442    0.683707    0.748154     0.005394
PD3771   PD        0.566363    0.719652    0.786952     0.005394
AU3772   AU        0.604127    0.683179    0.784100     0.007504
AU3773   AU        0.601405    0.717132    0.748767     0.007504
PD3774   PD        0.625371    0.757024    0.823716     0.005394
PD3775   PD        0.302486    0.750858    0.754405     0.005394
PD3776   PD        0.368605    0.755122    0.744471     0.005394
PD3777   PD        0.400688    0.754477    0.782622     0.005394
PD3778   PD        0.403010    0.788518    0.749262     0.005394
AU3779   AU        0.432121    0.752488    0.746070     0.007504
AU3780   AU        0.464866    0.754848    0.786076     0.007504
AU3781   AU        0.466227    0.787273    0.747657     0.007504
PD3782   PD        0.499118    0.754738    0.748832     0.005394
PD3783   PD        0.567977    0.751842    0.751584     0.005394
PD3784   PD        0.401932    0.218187    0.820302     0.005394
PD3785   PD        0.468913    0.217265    0.817829     0.005394
PD3786   PD        0.269480    0.292480    0.820068     0.005394
PD3787   PD        0.334880    0.289573    0.819713     0.005394
AU3788   AU        0.367852    0.255888    0.819654     0.007504
PD3789   PD        0.366573    0.286427    0.856227     0.005394
PD3790   PD        0.374115    0.323160    0.889607     0.005394
AU3791   AU        0.436557    0.254949    0.818513     0.007504
PD3792   PD        0.433832    0.293558    0.855272     0.005394
PD3793   PD        0.468122    0.290355    0.818665     0.005394
PD3794   PD        0.502112    0.254634    0.820004     0.005394
PD3795   PD        0.502740    0.291308    0.854766     0.005394
AU3796   AU        0.534420    0.290299    0.818203     0.007504
PD3797   PD        0.601501    0.295242    0.822286     0.005394
PD3798   PD        0.266275    0.362466    0.893006     0.005394
PD3799   PD        0.299798    0.327451    0.820693     0.005394
AU3800   AU        0.303896    0.362504    0.855100     0.007504
AU3801   AU        0.335806    0.324199    0.854335     0.007504
AU3802   AU        0.336980    0.361885    0.819728     0.007504
PD3803   PD        0.368990    0.321965    0.820811     0.005394
PD3804   PD        0.367751    0.360629    0.853740     0.005394
PD3805   PD        0.406569    0.355171    0.889586     0.005394
PD3806   PD        0.403033    0.360740    0.818636     0.005394
AU3807   AU        0.436371    0.326925    0.818891     0.007504
PD3808   PD        0.437225    0.361119    0.854505     0.005394
PD3809   PD        0.466484    0.288562    0.888284     0.005394
PD3810   PD        0.468669    0.360070    0.819360     0.005394
AU3811   AU        0.500956    0.324515    0.818883     0.007504
AU3812   AU        0.501373    0.363239    0.853486     0.007504
PD3813   PD        0.537703    0.326283    0.853183     0.005394
AU3814   AU        0.534792    0.362502    0.820332     0.007504
PD3815   PD        0.567902    0.330524    0.818711     0.005394
AU3816   AU        0.568296    0.364933    0.855480     0.007504
PD3817   PD        0.601728    0.361264    0.819046     0.005394
AU3818   AU        0.200628    0.435462    0.819165     0.007504
PD3819   PD        0.235414    0.398188    0.817270     0.005394
PD3820   PD        0.267321    0.396990    0.852891     0.005394
AU3821   AU        0.270147    0.432678    0.819477     0.007504
PD3822   PD        0.301976    0.395808    0.818769     0.005394
PD3823   PD        0.302106    0.427544    0.859169     0.005394
PD3824   PD        0.337230    0.357611    0.891489     0.005394
PD3825   PD        0.334326    0.433332    0.817281     0.005394
PD3826   PD        0.368094    0.396533    0.821787     0.005394
PD3827   PD        0.366702    0.431187    0.857083     0.005394
PD3828   PD        0.404886    0.395098    0.857739     0.005394
PD3829   PD        0.400624    0.430948    0.822323     0.005394
AU3830   AU        0.435474    0.397127    0.819783     0.007504
AU3831   AU        0.435595    0.431001    0.854347     0.007504
AU3832   AU        0.469554    0.398113    0.856395     0.007504
PD3833   PD        0.469101    0.429896    0.819387     0.005394
PD3834   PD        0.501834    0.397516    0.817922     0.005394
PD3835   PD        0.500116    0.432659    0.853501     0.005394
AU3836   AU        0.532088    0.399494    0.853911     0.007504
PD3837   PD        0.535463    0.435630    0.822278     0.005394
PD3838   PD        0.564321    0.399227    0.819951     0.005394
AU3839   AU        0.565841    0.435406    0.855615     0.007504
PD3840   PD        0.599683    0.399732    0.851162     0.005394
PD3841   PD        0.598369    0.435453    0.818295     0.005394
PD3842   PD        0.635120    0.399508    0.817133     0.005394
PD3843   PD        0.667281    0.432322    0.818674     0.005394
PD3844   PD        0.144472    0.477408    0.831247     0.005394
AU3845   AU        0.235572    0.469962    0.819373     0.007504
AU3846   AU        0.268849    0.462345    0.855166     0.007504
AU3847   AU        0.269114    0.504340    0.821580     0.007504
AU3848   AU        0.301325    0.470662    0.817548     0.007504
PD3849   PD        0.299546    0.511136    0.856768     0.005394
PD3850   PD        0.333767    0.467674    0.853438     0.005394
PD3851   PD        0.335036    0.506033    0.819671     0.005394
AU3852   AU        0.366442    0.471380    0.819936     0.007504
PD3853   PD        0.368451    0.505780    0.857813     0.005394
PD3854   PD        0.401437    0.468909    0.853330     0.005394
PD3855   PD        0.401185    0.503693    0.817167     0.005394
PD3856   PD        0.434891    0.469131    0.820651     0.005394
PD3857   PD        0.436511    0.506668    0.853967     0.005394
AU3858   AU        0.467624    0.467635    0.854384     0.007504
AU3859   AU        0.467648    0.505192    0.818285     0.007504
PD3860   PD        0.500158    0.470584    0.819887     0.005394
PD3861   PD        0.498627    0.502938    0.856137     0.005394
AU3862   AU        0.531168    0.468601    0.856149     0.007504
AU3863   AU        0.531611    0.504984    0.818987     0.007504
PD3864   PD        0.565524    0.469038    0.820061     0.005394
PD3865   PD        0.565420    0.505943    0.853319     0.005394
AU3866   AU        0.600208    0.471502    0.854625     0.007504
AU3867   AU        0.600365    0.504966    0.818708     0.007504
PD3868   PD        0.634892    0.468894    0.817186     0.005394
PD3869   PD        0.669381    0.509800    0.819307     0.005394
PD3870   PD        0.235681    0.538755    0.820040     0.005394
PD3871   PD        0.268476    0.545488    0.853990     0.005394
AU3872   AU        0.267388    0.577614    0.816921     0.007504
AU3873   AU        0.301795    0.540553    0.818366     0.007504
PD3874   PD        0.299507    0.574866    0.852807     0.005394
PD3875   PD        0.333001    0.542728    0.856656     0.005394
AU3876   AU        0.334040    0.576175    0.819097     0.007504
PD3877   PD        0.370168    0.540668    0.822251     0.005394
PD3878   PD        0.369962    0.576877    0.856103     0.005394
PD3879   PD        0.403595    0.541520    0.855197     0.005394
PD3880   PD        0.401682    0.576434    0.821030     0.005394
PD3881   PD        0.434356    0.541482    0.819432     0.005394
PD3882   PD        0.433201    0.577345    0.854811     0.005394
AU3883   AU        0.469357    0.539426    0.854251     0.007504
PD3884   PD        0.466004    0.576297    0.818298     0.005394
AU3885   AU        0.499758    0.540160    0.819165     0.007504
PD3886   PD        0.499120    0.575772    0.855093     0.005394
AU3887   AU        0.531855    0.537256    0.856801     0.007504
AU3888   AU        0.533468    0.574531    0.820864     0.007504
AU3889   AU        0.568301    0.541115    0.819667     0.007504
PD3890   PD        0.564724    0.572452    0.856813     0.005394
PD3891   PD        0.599733    0.540317    0.854289     0.005394
AU3892   AU        0.600656    0.577547    0.821562     0.007504
PD3893   PD        0.632886    0.539562    0.819998     0.005394
PD3894   PD        0.233479    0.656457    0.851059     0.005394
AU3895   AU        0.302219    0.613019    0.818505     0.007504
PD3896   PD        0.335496    0.612406    0.850543     0.005394
AU3897   AU        0.334753    0.647721    0.816829     0.007504
AU3898   AU        0.368161    0.610142    0.819481     0.007504
AU3899   AU        0.370075    0.646658    0.853196     0.007504
AU3900   AU        0.400661    0.613465    0.853529     0.007504
PD3901   PD        0.400921    0.650643    0.819046     0.005394
AU3902   AU        0.434783    0.610855    0.818561     0.007504
PD3903   PD        0.436055    0.644234    0.853538     0.005394
AU3904   AU        0.467123    0.608725    0.854643     0.007504
AU3905   AU        0.464710    0.647873    0.819121     0.007504
AU3906   AU        0.501677    0.609473    0.820800     0.007504
AU3907   AU        0.499791    0.646814    0.852747     0.007504
PD3908   PD        0.532553    0.609989    0.855516     0.005394
PD3909   PD        0.530837    0.647380    0.817361     0.005394
AU3910   AU        0.566071    0.610926    0.819962     0.007504
PD3911   PD        0.598794    0.649255    0.821474     0.005394
AU3912   AU        0.367621    0.683255    0.819145     0.007504
PD3913   PD        0.398156    0.717999    0.816454     0.005394
AU3914   AU        0.435256    0.683949    0.818063     0.007504
PD3915   PD        0.438033    0.749341    0.817314     0.005394
PD3916   PD        0.498331    0.682993    0.817938     0.005394
AU3917   AU        0.402193    0.434502    0.888509     0.007504
PD3918   PD        0.435371    0.398608    0.894482     0.005394
PD3919   PD        0.467044    0.435283    0.890169     0.005394
PD3920   PD        0.369910    0.468881    0.889324     0.005394
PD3921   PD        0.435847    0.502336    0.926505     0.005394
PD3922   PD        0.432714    0.471686    0.888299     0.005394
PD3923   PD        0.469117    0.504728    0.892409     0.005394
PD3924   PD        0.500972    0.467896    0.892332     0.005394
PD3925   PD        0.436610    0.538445    0.891291     0.005394
