data_00001
_audit_creation_method   'DISCUS'

_data_chemical_name_common 'Au.cell: Pearson 85'

_cell_length_a             57.1046
_cell_length_b             57.1046
_cell_length_c             57.1046
_cell_angle_alpha     90.0000
_cell_angle_beta      90.0000
_cell_angle_gamma     90.0000

_symmetry_space_group_name_H-M   'P1              '

loop_
_atom_site_label
_atom_site_symbol
_atom_site_fract_x
_atom_site_fract_y
_atom_site_fract_z
_atom_site_u_iso_or_equiv
NI1   NI        0.414869    0.226919    0.053976     0.004307
NI2   NI        0.480048    0.199804    0.058235     0.004307
NI3   NI        0.438279    0.327725    0.012284     0.004307
NI4   NI        0.334556    0.322070    0.053448     0.004307
NI5   NI        0.376583    0.301720    0.042154     0.004307
AU6   AU        0.377190    0.321705    0.078704     0.007504
NI7   NI        0.404191    0.268931    0.030465     0.004307
NI8   NI        0.449484    0.365742    0.038251     0.004307
NI9   NI        0.476673    0.290222    0.048717     0.004307
AU10   AU        0.472442    0.338500    0.061225     0.007504
NI11   NI        0.542172    0.283221    0.062535     0.004307
NI12   NI        0.573813    0.317395    0.052957     0.004307
NI13   NI        0.252945    0.358928    0.083682     0.004307
NI14   NI        0.285832    0.364425    0.048772     0.004307
NI15   NI        0.332421    0.361656    0.032283     0.004307
NI16   NI        0.354291    0.405512    0.039459     0.004307
NI17   NI        0.393223    0.363490    0.058126     0.004307
NI18   NI        0.403389    0.424550    0.022630     0.004307
NI19   NI        0.437458    0.392618    0.004937     0.004307
NI20   NI        0.428081    0.398644    0.058154     0.004307
AU21   AU        0.501834    0.387092    0.048063     0.007504
NI22   NI        0.483129    0.382420    0.000714     0.004307
NI23   NI        0.530767    0.353538    0.032420     0.004307
NI24   NI        0.515691    0.319355    0.055234     0.004307
NI25   NI        0.569478    0.372331    0.045295     0.004307
NI26   NI        0.611786    0.354483    0.054267     0.004307
NI27   NI        0.272039    0.428565    0.055599     0.004307
NI28   NI        0.308242    0.484125    0.058701     0.004307
NI29   NI        0.312186    0.435569    0.027258     0.004307
NI30   NI        0.355490    0.437660    0.008816     0.004307
NI31   NI        0.346122    0.482323    0.038853     0.004307
AU32   AU        0.372221    0.446553    0.053335     0.007504
NI33   NI        0.387789    0.485697    0.023043     0.004307
NI34   NI        0.450487    0.446627    0.007754     0.004307
NI35   NI        0.417205    0.451269    0.052665     0.004307
NI36   NI        0.468190    0.430429    0.049104     0.004307
NI37   NI        0.480046    0.494043    0.014966     0.004307
NI38   NI        0.514287    0.439563    0.038213     0.004307
NI39   NI        0.510554    0.483566    0.045975     0.004307
NI40   NI        0.562529    0.431401    0.036211     0.004307
NI41   NI        0.568866    0.480240    0.051984     0.004307
NI42   NI        0.634407    0.401944    0.029847     0.004307
NI43   NI        0.265400    0.475481    0.031898     0.004307
NI44   NI        0.220676    0.548401    0.078839     0.004307
AU45   AU        0.302431    0.511861    0.090231     0.007504
NI46   NI        0.313950    0.532309    0.043532     0.004307
NI47   NI        0.402952    0.525728    0.024431     0.004307
NI48   NI        0.435612    0.484230    0.030011     0.004307
NI49   NI        0.427037    0.564671    0.042449     0.004307
NI50   NI        0.465342    0.539910    0.039138     0.004307
NI51   NI        0.548937    0.522748    0.028391     0.004307
NI52   NI        0.588552    0.519174    0.065683     0.004307
NI53   NI        0.551807    0.553732    0.086735     0.004307
NI54   NI        0.633656    0.514817    0.049769     0.004307
NI55   NI        0.285929    0.569879    0.051754     0.004307
NI56   NI        0.331859    0.585571    0.048432     0.004307
NI57   NI        0.381731    0.576404    0.046226     0.004307
NI58   NI        0.442064    0.623034    0.056734     0.004307
NI59   NI        0.477808    0.580351    0.047349     0.004307
NI60   NI        0.526057    0.548633    0.050428     0.004307
NI61   NI        0.558244    0.587865    0.057427     0.004307
NI62   NI        0.319080    0.163320    0.103248     0.004307
NI63   NI        0.365009    0.167889    0.125954     0.004307
NI64   NI        0.389584    0.136803    0.143806     0.004307
NI65   NI        0.411101    0.159601    0.109613     0.004307
AU66   AU        0.440269    0.199971    0.118578     0.007504
NI67   NI        0.470718    0.165871    0.113355     0.004307
NI68   NI        0.432802    0.197497    0.075265     0.004307
NI69   NI        0.512090    0.180522    0.117582     0.004307
NI70   NI        0.577792    0.171626    0.120923     0.004307
NI71   NI        0.225532    0.273542    0.094959     0.004307
NI72   NI        0.279764    0.172880    0.128214     0.004307
NI73   NI        0.252613    0.334612    0.038322     0.004307
AU74   AU        0.293929    0.249445    0.119876     0.007504
AU75   AU        0.324100    0.208744    0.115580     0.007504
NI76   NI        0.332722    0.263474    0.047846     0.004307
NI77   NI        0.329769    0.217986    0.068615     0.004307
AU78   AU        0.354471    0.243059    0.111305     0.007504
NI79   NI        0.392201    0.209493    0.103296     0.004307
NI80   NI        0.388935    0.257367    0.076137     0.004307
NI81   NI        0.445446    0.240824    0.087297     0.004307
AU82   AU        0.429329    0.262602    0.120762     0.007504
AU83   AU        0.485590    0.219676    0.116532     0.007504
NI84   NI        0.485331    0.249281    0.073560     0.004307
NI85   NI        0.528880    0.236325    0.073480     0.004307
AU86   AU        0.519761    0.255978    0.117958     0.007504
NI87   NI        0.552037    0.212743    0.120132     0.004307
NI88   NI        0.569363    0.247184    0.079888     0.004307
NI89   NI        0.588043    0.249597    0.119945     0.004307
NI90   NI        0.620615    0.216636    0.113509     0.004307
NI91   NI        0.609933    0.271244    0.075326     0.004307
NI92   NI        0.660221    0.242371    0.124443     0.004307
NI93   NI        0.221153    0.312671    0.066434     0.004307
NI94   NI        0.216544    0.349086    0.102771     0.004307
AU95   AU        0.264824    0.284694    0.122040     0.007504
NI96   NI        0.283263    0.317532    0.081525     0.004307
NI97   NI        0.307416    0.283088    0.085354     0.004307
AU98   AU        0.299357    0.322416    0.122468     0.007504
AU99   AU        0.332086    0.286366    0.125403     0.007504
NI100   NI        0.331326    0.322235    0.093730     0.004307
NI101   NI        0.350255    0.284123    0.080994     0.004307
AU102   AU        0.358886    0.320519    0.125987     0.007504
AU103   AU        0.382897    0.283247    0.117574     0.007504
NI104   NI        0.423680    0.322830    0.053157     0.004307
NI105   NI        0.424457    0.279109    0.069469     0.004307
AU106   AU        0.413843    0.312808    0.106020     0.007504
AU107   AU        0.477857    0.270230    0.120329     0.007504
AU108   AU        0.460972    0.308625    0.094280     0.007504
AU109   AU        0.507772    0.291701    0.088900     0.007504
AU110   AU        0.495955    0.316744    0.131127     0.007504
AU111   AU        0.540583    0.297178    0.136951     0.007504
AU112   AU        0.545043    0.325626    0.093641     0.007504
AU113   AU        0.574790    0.291455    0.100892     0.007504
AU114   AU        0.584057    0.326737    0.124752     0.007504
AU115   AU        0.621598    0.288955    0.118693     0.007504
AU116   AU        0.611706    0.319960    0.084481     0.007504
AU117   AU        0.651628    0.325711    0.115536     0.007504
NI118   NI        0.708373    0.315885    0.107807     0.004307
NI119   NI        0.148442    0.410300    0.101488     0.004307
NI120   NI        0.186114    0.383823    0.100700     0.004307
NI121   NI        0.187659    0.420167    0.063315     0.004307
NI122   NI        0.220811    0.391427    0.069635     0.004307
AU123   AU        0.232000    0.396348    0.118937     0.007504
AU124   AU        0.267169    0.361027    0.122457     0.007504
AU125   AU        0.272084    0.397854    0.087142     0.007504
AU126   AU        0.303878    0.360723    0.088586     0.007504
AU127   AU        0.300404    0.400321    0.120610     0.007504
AU128   AU        0.335223    0.362819    0.121065     0.007504
AU129   AU        0.313238    0.397599    0.057674     0.007504
AU130   AU        0.352374    0.373002    0.078606     0.007504
AU131   AU        0.365292    0.398747    0.118409     0.007504
AU132   AU        0.388809    0.355877    0.110010     0.007504
AU133   AU        0.388609    0.405812    0.074509     0.007504
AU134   AU        0.431230    0.351840    0.084234     0.007504
AU135   AU        0.424318    0.393312    0.111032     0.007504
AU136   AU        0.471816    0.353965    0.110258     0.007504
AU137   AU        0.465387    0.388080    0.074249     0.007504
AU138   AU        0.513416    0.353860    0.083027     0.007504
AU139   AU        0.504794    0.389494    0.109134     0.007504
AU140   AU        0.550368    0.362931    0.120075     0.007504
AU141   AU        0.543325    0.393739    0.080179     0.007504
AU142   AU        0.578290    0.358187    0.084806     0.007504
AU143   AU        0.581238    0.399215    0.110568     0.007504
AU144   AU        0.621001    0.364957    0.108533     0.007504
AU145   AU        0.604980    0.399344    0.069856     0.007504
NI146   NI        0.662192    0.366923    0.075133     0.004307
AU147   AU        0.658554    0.399370    0.114900     0.007504
NI148   NI        0.684265    0.364661    0.112625     0.004307
NI149   NI        0.705918    0.406052    0.092576     0.004307
NI150   NI        0.730097    0.400966    0.126777     0.004307
NI151   NI        0.171793    0.473293    0.097648     0.004307
AU152   AU        0.193561    0.432693    0.113808     0.007504
NI153   NI        0.196269    0.491575    0.065770     0.004307
NI154   NI        0.231798    0.431062    0.081618     0.004307
AU155   AU        0.225069    0.471112    0.115225     0.007504
AU156   AU        0.262639    0.436093    0.118208     0.007504
AU157   AU        0.269020    0.472942    0.084067     0.007504
AU158   AU        0.304609    0.438152    0.086144     0.007504
AU159   AU        0.300103    0.475324    0.122324     0.007504
AU160   AU        0.335420    0.437918    0.123946     0.007504
AU161   AU        0.340565    0.473699    0.088163     0.007504
AU162   AU        0.344175    0.421484    0.081822     0.007504
AU163   AU        0.368645    0.478816    0.121032     0.007504
AU164   AU        0.382338    0.442595    0.102225     0.007504
AU165   AU        0.394147    0.482738    0.077096     0.007504
AU166   AU        0.429678    0.449295    0.094012     0.007504
AU167   AU        0.439131    0.491043    0.099104     0.007504
AU168   AU        0.464323    0.418320    0.108392     0.007504
AU169   AU        0.481468    0.463382    0.088571     0.007504
AU170   AU        0.502863    0.423571    0.076209     0.007504
AU171   AU        0.527648    0.478528    0.119825     0.007504
AU172   AU        0.541775    0.430126    0.113463     0.007504
AU173   AU        0.533767    0.463253    0.075284     0.007504
AU174   AU        0.576537    0.437260    0.080654     0.007504
AU175   AU        0.594936    0.462272    0.120221     0.007504
AU176   AU        0.619924    0.429498    0.107778     0.007504
AU177   AU        0.612909    0.471543    0.075798     0.007504
NI178   NI        0.647987    0.420678    0.066437     0.004307
NI179   NI        0.655066    0.450349    0.097585     0.004307
AU180   AU        0.690369    0.435094    0.129299     0.007504
NI181   NI        0.698152    0.469912    0.100981     0.004307
NI182   NI        0.729830    0.444663    0.113808     0.004307
NI183   NI        0.198173    0.519147    0.108560     0.004307
NI184   NI        0.233924    0.509655    0.085056     0.004307
NI185   NI        0.211546    0.558312    0.119248     0.004307
AU186   AU        0.259785    0.508364    0.119783     0.007504
NI187   NI        0.270478    0.549634    0.088018     0.004307
NI188   NI        0.266389    0.514769    0.052200     0.004307
AU189   AU        0.309357    0.552065    0.124453     0.007504
AU190   AU        0.333838    0.507342    0.122583     0.007504
AU191   AU        0.322478    0.556060    0.077743     0.007504
AU192   AU        0.356572    0.518083    0.073899     0.007504
AU193   AU        0.356898    0.543673    0.113929     0.007504
AU194   AU        0.399025    0.517916    0.113159     0.007504
NI195   NI        0.390583    0.542431    0.074862     0.004307
AU196   AU        0.429972    0.529028    0.067526     0.007504
AU197   AU        0.446893    0.538431    0.111897     0.007504
AU198   AU        0.483198    0.505943    0.108284     0.007504
AU199   AU        0.485971    0.546258    0.080318     0.007504
AU200   AU        0.466916    0.500185    0.062363     0.007504
AU201   AU        0.517791    0.549243    0.118189     0.007504
NI202   NI        0.538892    0.510107    0.146198     0.004307
AU203   AU        0.527275    0.513200    0.084957     0.007504
AU204   AU        0.570816    0.489210    0.095148     0.007504
AU205   AU        0.593957    0.549594    0.101823     0.007504
AU206   AU        0.620274    0.506688    0.112226     0.007504
NI207   NI        0.640013    0.537541    0.083382     0.004307
NI208   NI        0.658180    0.494307    0.091241     0.004307
NI209   NI        0.648395    0.547818    0.132068     0.004307
AU210   AU        0.663448    0.478728    0.133435     0.007504
NI211   NI        0.184295    0.592178    0.138351     0.004307
NI212   NI        0.227000    0.627597    0.101364     0.004307
NI213   NI        0.250957    0.580700    0.114948     0.004307
NI214   NI        0.248317    0.593615    0.072201     0.004307
NI215   NI        0.288562    0.589995    0.087174     0.004307
AU216   AU        0.318060    0.606784    0.114670     0.007504
AU217   AU        0.349026    0.585059    0.134630     0.007504
NI218   NI        0.272607    0.627834    0.102118     0.004307
AU219   AU        0.363018    0.581460    0.085139     0.007504
AU220   AU        0.362400    0.629782    0.109167     0.007504
AU221   AU        0.402988    0.565909    0.111111     0.007504
AU222   AU        0.401817    0.612465    0.086615     0.007504
AU223   AU        0.441668    0.579461    0.080747     0.007504
AU224   AU        0.440393    0.616170    0.115679     0.007504
AU225   AU        0.476899    0.578080    0.117851     0.007504
AU226   AU        0.478084    0.617680    0.084909     0.007504
AU227   AU        0.516805    0.584563    0.084074     0.007504
AU228   AU        0.511682    0.611644    0.123545     0.007504
AU229   AU        0.555585    0.588274    0.110714     0.007504
NI230   NI        0.550448    0.622359    0.085436     0.004307
NI231   NI        0.597935    0.594941    0.087911     0.004307
NI232   NI        0.590087    0.626583    0.115033     0.004307
AU233   AU        0.631851    0.582383    0.115068     0.007504
NI234   NI        0.577198    0.663810    0.088375     0.004307
NI235   NI        0.686810    0.583919    0.113854     0.004307
NI236   NI        0.680287    0.543121    0.102564     0.004307
NI237   NI        0.286632    0.667933    0.083050     0.004307
NI238   NI        0.328113    0.705519    0.153462     0.004307
AU239   AU        0.318996    0.656030    0.120093     0.007504
NI240   NI        0.337346    0.632070    0.074351     0.004307
NI241   NI        0.373931    0.704856    0.108384     0.004307
AU242   AU        0.407282    0.647946    0.127596     0.007504
NI243   NI        0.358141    0.672818    0.085110     0.004307
NI244   NI        0.407635    0.659606    0.080406     0.004307
NI245   NI        0.461986    0.679443    0.094337     0.004307
AU246   AU        0.482562    0.649797    0.119686     0.007504
NI247   NI        0.500253    0.697420    0.098788     0.004307
NI248   NI        0.526240    0.655672    0.096858     0.004307
AU249   AU        0.518784    0.677174    0.135272     0.007504
AU250   AU        0.552273    0.636377    0.132755     0.007504
NI251   NI        0.565317    0.697702    0.129882     0.004307
NI252   NI        0.640939    0.622747    0.091274     0.004307
NI253   NI        0.418090    0.705191    0.094781     0.004307
NI254   NI        0.460911    0.722274    0.106443     0.004307
NI255   NI        0.291309    0.128285    0.180279     0.004307
AU256   AU        0.366719    0.116320    0.199684     0.007504
NI257   NI        0.407390    0.085046    0.202458     0.004307
NI258   NI        0.425853    0.119394    0.135727     0.004307
NI259   NI        0.444536    0.110107    0.189596     0.004307
NI260   NI        0.375012    0.094162    0.161079     0.004307
NI261   NI        0.466895    0.115944    0.150998     0.004307
NI262   NI        0.496683    0.109472    0.182514     0.004307
NI263   NI        0.583276    0.127106    0.193482     0.004307
NI264   NI        0.219535    0.174286    0.199569     0.004307
NI265   NI        0.245551    0.142785    0.204215     0.004307
NI266   NI        0.246081    0.175719    0.152121     0.004307
NI267   NI        0.300594    0.136523    0.138790     0.004307
AU268   AU        0.284219    0.174854    0.185264     0.007504
AU269   AU        0.331997    0.152001    0.197128     0.007504
AU270   AU        0.320654    0.171077    0.153611     0.007504
NI271   NI        0.346781    0.129697    0.158394     0.004307
AU272   AU        0.377074    0.164373    0.176158     0.007504
AU273   AU        0.417121    0.146348    0.183341     0.007504
AU274   AU        0.406924    0.188834    0.145503     0.007504
NI275   NI        0.442829    0.155258    0.150130     0.004307
AU276   AU        0.441171    0.189328    0.192560     0.007504
AU277   AU        0.476884    0.155482    0.189073     0.007504
AU278   AU        0.475481    0.191439    0.156859     0.007504
NI279   NI        0.508932    0.156721    0.158196     0.004307
AU280   AU        0.511233    0.193337    0.194223     0.007504
NI281   NI        0.539131    0.131842    0.186742     0.004307
AU282   AU        0.542610    0.181829    0.154909     0.007504
NI283   NI        0.554231    0.131341    0.142604     0.004307
AU284   AU        0.578631    0.166254    0.173912     0.007504
NI285   NI        0.626755    0.139603    0.177506     0.004307
NI286   NI        0.617440    0.174264    0.141028     0.004307
NI287   NI        0.644215    0.212485    0.154493     0.004307
NI288   NI        0.174239    0.234250    0.182704     0.004307
NI289   NI        0.206389    0.205329    0.170907     0.004307
AU290   AU        0.220429    0.284289    0.152013     0.007504
NI291   NI        0.217984    0.231447    0.136145     0.004307
AU292   AU        0.217519    0.250444    0.187548     0.007504
AU293   AU        0.250792    0.212371    0.187559     0.007504
AU294   AU        0.255136    0.249267    0.152115     0.007504
AU295   AU        0.288436    0.209861    0.150593     0.007504
AU296   AU        0.289589    0.246190    0.186813     0.007504
AU297   AU        0.325403    0.207957    0.187509     0.007504
AU298   AU        0.325988    0.245113    0.152325     0.007504
AU299   AU        0.358016    0.205843    0.150452     0.007504
AU300   AU        0.359029    0.245786    0.182782     0.007504
AU301   AU        0.396190    0.209076    0.182811     0.007504
AU302   AU        0.391218    0.240074    0.141935     0.007504
AU303   AU        0.432184    0.228633    0.157365     0.007504
NI304   NI        0.437956    0.259582    0.197603     0.004307
AU305   AU        0.474984    0.230443    0.188503     0.007504
AU306   AU        0.459356    0.269161    0.161961     0.007504
AU307   AU        0.514687    0.223124    0.156954     0.007504
AU308   AU        0.520814    0.244766    0.197084     0.007504
AU309   AU        0.555009    0.211348    0.186569     0.007504
AU310   AU        0.550527    0.249837    0.156005     0.007504
AU311   AU        0.586064    0.209239    0.151423     0.007504
AU312   AU        0.590343    0.247902    0.189376     0.007504
AU313   AU        0.611859    0.200637    0.187766     0.007504
AU314   AU        0.618801    0.250518    0.150926     0.007504
NI315   NI        0.712567    0.175605    0.169948     0.004307
AU316   AU        0.639429    0.243517    0.195690     0.007504
NI317   NI        0.684908    0.201200    0.185127     0.004307
NI318   NI        0.681107    0.245946    0.170099     0.004307
NI319   NI        0.730201    0.257082    0.202673     0.004307
NI320   NI        0.136865    0.264682    0.181214     0.004307
NI321   NI        0.146507    0.310972    0.133616     0.004307
NI322   NI        0.180484    0.315563    0.159729     0.004307
NI323   NI        0.183666    0.285180    0.189901     0.004307
NI324   NI        0.183911    0.350784    0.137074     0.004307
NI325   NI        0.227706    0.319034    0.128767     0.004307
AU326   AU        0.221779    0.321646    0.185573     0.007504
AU327   AU        0.253448    0.284769    0.188270     0.007504
AU328   AU        0.261872    0.323332    0.156703     0.007504
AU329   AU        0.293008    0.284847    0.156402     0.007504
NI330   NI        0.291701    0.322797    0.196769     0.004307
AU331   AU        0.329021    0.284236    0.183454     0.007504
AU332   AU        0.332583    0.322761    0.160741     0.007504
AU333   AU        0.365494    0.284130    0.158736     0.007504
NI334   NI        0.374496    0.333234    0.196744     0.004307
AU335   AU        0.411225    0.278679    0.161523     0.007504
AU336   AU        0.397788    0.324614    0.150591     0.007504
AU337   AU        0.448693    0.306563    0.142606     0.007504
NI338   NI        0.422709    0.314753    0.187720     0.004307
NI339   NI        0.465111    0.306870    0.184535     0.004307
AU340   AU        0.471240    0.346494    0.163137     0.007504
AU341   AU        0.506861    0.274457    0.162548     0.007504
NI342   NI        0.498715    0.332419    0.204871     0.004307
AU343   AU        0.552696    0.283846    0.182422     0.007504
NI344   NI        0.529098    0.325718    0.170626     0.004307
AU345   AU        0.584986    0.285005    0.150638     0.007504
AU346   AU        0.580588    0.326853    0.179381     0.007504
AU347   AU        0.620152    0.288668    0.186596     0.007504
AU348   AU        0.621152    0.323217    0.154701     0.007504
AU349   AU        0.657352    0.286633    0.153413     0.007504
AU350   AU        0.657579    0.324187    0.184194     0.007504
AU351   AU        0.696989    0.295191    0.186767     0.007504
AU352   AU        0.691583    0.324000    0.148218     0.007504
NI353   NI        0.707387    0.278511    0.135113     0.004307
NI354   NI        0.728404    0.333475    0.183308     0.004307
NI355   NI        0.753030    0.288793    0.155740     0.004307
NI356   NI        0.098036    0.379709    0.188226     0.004307
NI357   NI        0.099085    0.347862    0.216243     0.004307
NI358   NI        0.114624    0.403377    0.134454     0.004307
NI359   NI        0.154664    0.380449    0.137824     0.004307
AU360   AU        0.152517    0.395094    0.184535     0.007504
AU361   AU        0.188555    0.361713    0.184821     0.007504
AU362   AU        0.192469    0.399013    0.150770     0.007504
AU363   AU        0.227941    0.361394    0.153854     0.007504
AU364   AU        0.224763    0.399711    0.187894     0.007504
AU365   AU        0.258679    0.361567    0.189137     0.007504
AU366   AU        0.264306    0.398697    0.154553     0.007504
AU367   AU        0.297820    0.361353    0.154927     0.007504
AU368   AU        0.292275    0.398915    0.188161     0.007504
NI369   NI        0.322396    0.362097    0.188093     0.004307
AU370   AU        0.327670    0.400160    0.154844     0.007504
AU371   AU        0.361932    0.361247    0.155150     0.007504
NI372   NI        0.359010    0.398318    0.188669     0.004307
NI373   NI        0.406844    0.372724    0.187712     0.004307
NI374   NI        0.405514    0.388170    0.150368     0.004307
AU375   AU        0.432149    0.349374    0.134195     0.007504
NI376   NI        0.451822    0.390491    0.197393     0.004307
NI377   NI        0.445426    0.346325    0.199543     0.004307
AU378   AU        0.458368    0.385647    0.144554     0.007504
NI379   NI        0.508545    0.364269    0.149537     0.004307
NI380   NI        0.498103    0.376452    0.188192     0.004307
NI381   NI        0.553182    0.367990    0.165535     0.004307
NI382   NI        0.528826    0.408016    0.149362     0.004307
AU383   AU        0.591617    0.363498    0.145454     0.007504
NI384   NI        0.562647    0.411411    0.186989     0.004307
AU385   AU        0.620162    0.361327    0.185639     0.007504
AU386   AU        0.622371    0.399627    0.146312     0.007504
AU387   AU        0.654689    0.363014    0.149954     0.007504
AU388   AU        0.653920    0.398247    0.185274     0.007504
AU389   AU        0.692093    0.360724    0.185404     0.007504
AU390   AU        0.687772    0.399935    0.153957     0.007504
NI391   NI        0.729692    0.357905    0.149297     0.004307
AU392   AU        0.726215    0.396355    0.189142     0.007504
NI393   NI        0.773614    0.350926    0.201751     0.004307
NI394   NI        0.774703    0.447003    0.158346     0.004307
NI395   NI        0.768853    0.400938    0.180190     0.004307
NI396   NI        0.068638    0.457948    0.170694     0.004307
NI397   NI        0.116112    0.431945    0.182389     0.004307
NI398   NI        0.109456    0.481060    0.182002     0.004307
AU399   AU        0.153102    0.431824    0.149256     0.007504
AU400   AU        0.151701    0.464677    0.184518     0.007504
AU401   AU        0.190075    0.432158    0.188248     0.007504
AU402   AU        0.186916    0.465608    0.150350     0.007504
AU403   AU        0.228343    0.434267    0.152749     0.007504
AU404   AU        0.220983    0.470785    0.185179     0.007504
AU405   AU        0.261204    0.435931    0.187551     0.007504
AU406   AU        0.256906    0.473007    0.153090     0.007504
AU407   AU        0.295367    0.438310    0.153749     0.007504
AU408   AU        0.293656    0.476036    0.188019     0.007504
NI409   NI        0.326025    0.435730    0.191042     0.004307
AU410   AU        0.335520    0.470982    0.158484     0.007504
NI411   NI        0.378062    0.434107    0.153830     0.004307
NI412   NI        0.375595    0.436949    0.211547     0.004307
NI413   NI        0.407772    0.419941    0.187408     0.004307
AU414   AU        0.414592    0.468566    0.138560     0.007504
AU415   AU        0.431133    0.424544    0.148757     0.007504
AU416   AU        0.445631    0.464345    0.180676     0.007504
NI417   NI        0.478612    0.423148    0.172278     0.004307
AU418   AU        0.462214    0.460880    0.132784     0.007504
NI419   NI        0.499536    0.435794    0.127098     0.004307
NI420   NI        0.488082    0.463813    0.173100     0.004307
NI421   NI        0.536216    0.445214    0.206376     0.004307
NI422   NI        0.543076    0.455768    0.164098     0.004307
NI423   NI        0.583362    0.433346    0.151826     0.004307
NI424   NI        0.577685    0.460200    0.192081     0.004307
NI425   NI        0.608266    0.402449    0.203397     0.004307
AU426   AU        0.619867    0.473142    0.163581     0.007504
AU427   AU        0.649429    0.434517    0.148987     0.007504
AU428   AU        0.667334    0.478963    0.182704     0.007504
AU429   AU        0.687800    0.436725    0.181584     0.007504
AU430   AU        0.708255    0.475694    0.152733     0.007504
NI431   NI        0.727999    0.434370    0.160771     0.004307
AU432   AU        0.713878    0.475188    0.202954     0.007504
AU433   AU        0.748611    0.440112    0.199869     0.007504
NI434   NI        0.749142    0.486597    0.135966     0.004307
NI435   NI        0.823369    0.470519    0.226600     0.004307
NI436   NI        0.105606    0.524817    0.152361     0.004307
NI437   NI        0.146642    0.501850    0.149220     0.004307
AU438   AU        0.141115    0.537247    0.184405     0.007504
AU439   AU        0.184240    0.502140    0.186193     0.007504
AU440   AU        0.177657    0.539896    0.150761     0.007504
AU441   AU        0.218912    0.507862    0.147774     0.007504
AU442   AU        0.213893    0.543465    0.184460     0.007504
AU443   AU        0.255366    0.512083    0.184685     0.007504
AU444   AU        0.253950    0.547400    0.151893     0.007504
AU445   AU        0.294791    0.512859    0.154929     0.007504
AU446   AU        0.287341    0.551533    0.183209     0.007504
AU447   AU        0.333538    0.502992    0.187807     0.007504
AU448   AU        0.334276    0.539592    0.160513     0.007504
AU449   AU        0.371765    0.510797    0.153844     0.007504
AU450   AU        0.374541    0.534089    0.191475     0.007504
AU451   AU        0.410826    0.495354    0.183060     0.007504
AU452   AU        0.416065    0.534867    0.156018     0.007504
AU453   AU        0.450522    0.502498    0.146639     0.007504
AU454   AU        0.447983    0.534830    0.188259     0.007504
AU455   AU        0.478553    0.504247    0.186553     0.007504
AU456   AU        0.477494    0.542999    0.151857     0.007504
NI457   NI        0.497732    0.498610    0.146225     0.004307
NI458   NI        0.490852    0.553220    0.203703     0.004307
NI459   NI        0.518962    0.543948    0.164434     0.004307
AU460   AU        0.560304    0.546818    0.136726     0.007504
NI461   NI        0.581579    0.508353    0.131296     0.004307
AU462   AU        0.576459    0.560084    0.183617     0.007504
NI463   NI        0.611546    0.520051    0.188066     0.004307
AU464   AU        0.610026    0.542555    0.148199     0.007504
AU465   AU        0.649657    0.514377    0.159063     0.007504
AU466   AU        0.647468    0.552902    0.185186     0.007504
NI467   NI        0.705894    0.513346    0.179628     0.004307
AU468   AU        0.689826    0.549439    0.152872     0.007504
NI469   NI        0.699016    0.512028    0.122153     0.004307
NI470   NI        0.735825    0.575039    0.194732     0.004307
NI471   NI        0.746227    0.484314    0.176489     0.004307
NI472   NI        0.105266    0.546600    0.226436     0.004307
NI473   NI        0.110450    0.573171    0.181921     0.004307
NI474   NI        0.147404    0.610168    0.183478     0.004307
AU475   AU        0.177147    0.577941    0.183700     0.007504
NI476   NI        0.190679    0.625374    0.172852     0.004307
AU477   AU        0.222687    0.586083    0.158970     0.007504
AU478   AU        0.221060    0.616416    0.201271     0.007504
AU479   AU        0.263200    0.596833    0.186834     0.007504
AU480   AU        0.252131    0.625325    0.145867     0.007504
AU481   AU        0.284700    0.588503    0.147164     0.007504
AU482   AU        0.299505    0.625521    0.172733     0.007504
AU483   AU        0.325983    0.588400    0.178021     0.007504
AU484   AU        0.339651    0.630033    0.154520     0.007504
AU485   AU        0.378771    0.560100    0.155544     0.007504
AU486   AU        0.374672    0.605478    0.181549     0.007504
AU487   AU        0.410824    0.570081    0.192461     0.007504
AU488   AU        0.395370    0.603305    0.135106     0.007504
AU489   AU        0.438215    0.578848    0.148689     0.007504
AU490   AU        0.422864    0.619671    0.174240     0.007504
AU491   AU        0.460106    0.584383    0.189288     0.007504
AU492   AU        0.468700    0.618350    0.155561     0.007504
AU493   AU        0.502279    0.584293    0.162083     0.007504
NI494   NI        0.494457    0.613761    0.198548     0.004307
NI495   NI        0.532405    0.580677    0.201675     0.004307
AU496   AU        0.544780    0.595712    0.158860     0.007504
AU497   AU        0.592290    0.582981    0.143144     0.007504
NI498   NI        0.577491    0.601130    0.206517     0.004307
AU499   AU        0.616986    0.590155    0.188270     0.007504
AU500   AU        0.628059    0.619069    0.146566     0.007504
AU501   AU        0.663504    0.587747    0.154994     0.007504
AU502   AU        0.658389    0.620377    0.183916     0.007504
AU503   AU        0.692619    0.580418    0.195823     0.007504
NI504   NI        0.700709    0.624320    0.171621     0.004307
NI505   NI        0.719814    0.583733    0.156556     0.004307
NI506   NI        0.732486    0.629145    0.212606     0.004307
NI507   NI        0.750829    0.534207    0.188449     0.004307
NI508   NI        0.188848    0.658710    0.202283     0.004307
NI509   NI        0.218579    0.658687    0.161250     0.004307
NI510   NI        0.235113    0.695649    0.195000     0.004307
AU511   AU        0.252696    0.645587    0.187609     0.007504
NI512   NI        0.253528    0.689059    0.133351     0.004307
AU513   AU        0.284729    0.664121    0.156749     0.007504
AU514   AU        0.281997    0.698648    0.193992     0.007504
AU515   AU        0.339803    0.635717    0.203703     0.007504
AU516   AU        0.322685    0.670339    0.177513     0.007504
AU517   AU        0.359066    0.671577    0.137347     0.007504
AU518   AU        0.365070    0.693667    0.181753     0.007504
AU519   AU        0.404268    0.662212    0.179367     0.007504
AU520   AU        0.404040    0.691978    0.143545     0.007504
AU521   AU        0.445083    0.658379    0.146561     0.007504
AU522   AU        0.439490    0.698880    0.177806     0.007504
NI523   NI        0.445710    0.653177    0.192455     0.004307
AU524   AU        0.476773    0.694990    0.142230     0.007504
AU525   AU        0.511682    0.633835    0.161257     0.007504
AU526   AU        0.482647    0.681014    0.188182     0.007504
AU527   AU        0.540761    0.624215    0.202033     0.007504
AU528   AU        0.545658    0.663610    0.167742     0.007504
AU529   AU        0.583344    0.627788    0.168730     0.007504
AU530   AU        0.587533    0.680136    0.169622     0.007504
AU531   AU        0.625560    0.651126    0.181984     0.007504
NI532   NI        0.608388    0.718883    0.150712     0.004307
NI533   NI        0.634529    0.673952    0.146289     0.004307
NI534   NI        0.639425    0.698926    0.180253     0.004307
NI535   NI        0.675936    0.660160    0.178943     0.004307
NI536   NI        0.278808    0.740496    0.204074     0.004307
NI537   NI        0.254689    0.724549    0.168828     0.004307
NI538   NI        0.319337    0.770411    0.207838     0.004307
AU539   AU        0.326655    0.719933    0.198803     0.007504
NI540   NI        0.363157    0.723740    0.144870     0.004307
NI541   NI        0.331223    0.754271    0.165787     0.004307
AU542   AU        0.395609    0.726522    0.179644     0.007504
NI543   NI        0.399674    0.741688    0.134328     0.004307
NI544   NI        0.437712    0.731592    0.143855     0.004307
AU545   AU        0.433557    0.750038    0.184972     0.007504
AU546   AU        0.477821    0.731263    0.176574     0.007504
NI547   NI        0.501216    0.737200    0.133473     0.004307
AU548   AU        0.521585    0.709266    0.173268     0.007504
NI549   NI        0.516645    0.756387    0.189984     0.004307
AU550   AU        0.549009    0.734171    0.210029     0.007504
NI551   NI        0.563515    0.727809    0.168294     0.004307
NI552   NI        0.580715    0.775827    0.202343     0.004307
NI553   NI        0.619133    0.749911    0.187462     0.004307
NI554   NI        0.394189    0.783671    0.183042     0.004307
NI555   NI        0.470151    0.774405    0.160843     0.004307
NI556   NI        0.376075    0.063206    0.242596     0.004307
NI557   NI        0.451596    0.044252    0.256918     0.004307
NI558   NI        0.530454    0.033288    0.289594     0.004307
NI559   NI        0.216557    0.071070    0.292338     0.004307
NI560   NI        0.262722    0.062868    0.251768     0.004307
NI561   NI        0.286505    0.075371    0.214498     0.004307
AU562   AU        0.285021    0.108069    0.253977     0.007504
NI563   NI        0.314789    0.066286    0.256745     0.004307
AU564   AU        0.316952    0.108709    0.212413     0.007504
NI565   NI        0.361623    0.068512    0.200880     0.004307
AU566   AU        0.356040    0.101496    0.250351     0.007504
AU567   AU        0.418229    0.084627    0.250768     0.007504
AU568   AU        0.407509    0.125640    0.227146     0.007504
AU569   AU        0.467675    0.087652    0.256646     0.007504
AU570   AU        0.441388    0.122368    0.263658     0.007504
NI571   NI        0.487837    0.060950    0.289030     0.004307
AU572   AU        0.472865    0.117854    0.223212     0.007504
NI573   NI        0.475501    0.071856    0.206971     0.004307
AU574   AU        0.508199    0.110366    0.257679     0.007504
NI575   NI        0.562178    0.068147    0.263188     0.004307
NI576   NI        0.549977    0.105585    0.229085     0.004307
NI577   NI        0.594275    0.101362    0.260664     0.004307
NI578   NI        0.614925    0.069692    0.289603     0.004307
NI579   NI        0.622021    0.120812    0.221980     0.004307
NI580   NI        0.636370    0.099873    0.256977     0.004307
NI581   NI        0.166576    0.188119    0.255332     0.004307
NI582   NI        0.190732    0.104958    0.279956     0.004307
NI583   NI        0.164295    0.212437    0.217285     0.004307
NI584   NI        0.196042    0.138682    0.248919     0.004307
AU585   AU        0.215799    0.177289    0.256318     0.007504
AU586   AU        0.249562    0.142252    0.254069     0.007504
AU587   AU        0.253033    0.183385    0.225976     0.007504
AU588   AU        0.288037    0.150992    0.222968     0.007504
AU589   AU        0.288560    0.181011    0.253903     0.007504
AU590   AU        0.323466    0.138912    0.251831     0.007504
AU591   AU        0.325862    0.179272    0.230593     0.007504
AU592   AU        0.364421    0.147729    0.237901     0.007504
AU593   AU        0.366395    0.184474    0.261570     0.007504
AU594   AU        0.407109    0.156920    0.266478     0.007504
AU595   AU        0.396915    0.176731    0.218890     0.007504
AU596   AU        0.441554    0.153903    0.227320     0.007504
NI597   NI        0.455864    0.190706    0.263177     0.004307
AU598   AU        0.480848    0.148077    0.262380     0.007504
NI599   NI        0.479930    0.188944    0.228551     0.004307
AU600   AU        0.514236    0.147364    0.222295     0.007504
NI601   NI        0.511379    0.194862    0.261106     0.004307
AU602   AU        0.540657    0.162362    0.258193     0.007504
AU603   AU        0.555193    0.178172    0.220843     0.007504
AU604   AU        0.580195    0.137968    0.242606     0.007504
AU605   AU        0.588107    0.181739    0.260206     0.007504
AU606   AU        0.621410    0.147818    0.257243     0.007504
AU607   AU        0.604552    0.163258    0.218249     0.007504
NI608   NI        0.672087    0.165383    0.208390     0.004307
AU609   AU        0.633518    0.197347    0.249703     0.007504
NI610   NI        0.660401    0.131275    0.245738     0.004307
NI611   NI        0.729419    0.159590    0.236460     0.004307
NI612   NI        0.707780    0.202283    0.256311     0.004307
NI613   NI        0.104430    0.241120    0.269479     0.004307
AU614   AU        0.153005    0.233715    0.262381     0.007504
NI615   NI        0.155939    0.208635    0.137808     0.004307
NI616   NI        0.123724    0.217285    0.228882     0.004307
NI617   NI        0.133807    0.304768    0.196444     0.004307
AU618   AU        0.201299    0.224548    0.261103     0.007504
AU619   AU        0.185144    0.254549    0.226516     0.007504
AU620   AU        0.212922    0.213778    0.220742     0.007504
NI621   NI        0.228823    0.260106    0.265415     0.004307
AU622   AU        0.252054    0.217522    0.261898     0.007504
AU623   AU        0.249884    0.247922    0.221577     0.007504
AU624   AU        0.290116    0.211311    0.213968     0.007504
AU625   AU        0.287742    0.247506    0.250898     0.007504
AU626   AU        0.326481    0.214900    0.253854     0.007504
AU627   AU        0.328201    0.249542    0.216849     0.007504
AU628   AU        0.363539    0.215029    0.221105     0.007504
NI629   NI        0.364419    0.261808    0.271042     0.004307
NI630   NI        0.412154    0.203329    0.254062     0.004307
NI631   NI        0.398765    0.243808    0.244855     0.004307
NI632   NI        0.442479    0.223504    0.224978     0.004307
NI633   NI        0.440936    0.238905    0.277660     0.004307
NI634   NI        0.480873    0.222114    0.287865     0.004307
NI635   NI        0.484122    0.273640    0.207828     0.004307
NI636   NI        0.488151    0.231233    0.234310     0.004307
NI637   NI        0.519291    0.266377    0.240211     0.004307
NI638   NI        0.536838    0.220925    0.233370     0.004307
NI639   NI        0.560913    0.254501    0.228078     0.004307
AU640   AU        0.587153    0.214245    0.227130     0.007504
NI641   NI        0.576959    0.233462    0.271445     0.004307
NI642   NI        0.619426    0.222534    0.281994     0.004307
AU643   AU        0.611302    0.263701    0.230570     0.007504
NI644   NI        0.656552    0.206278    0.217305     0.004307
NI645   NI        0.655025    0.278499    0.262143     0.004307
AU646   AU        0.675521    0.234405    0.257613     0.007504
AU647   AU        0.682309    0.249870    0.212014     0.007504
NI648   NI        0.714363    0.212883    0.212486     0.004307
AU649   AU        0.719123    0.242335    0.279252     0.007504
NI650   NI        0.750010    0.219677    0.232744     0.004307
NI651   NI        0.769641    0.267353    0.209755     0.004307
NI652   NI        0.794545    0.226661    0.279269     0.004307
NI653   NI        0.082656    0.328398    0.292418     0.004307
NI654   NI        0.132937    0.264262    0.240509     0.004307
AU655   AU        0.123840    0.318062    0.241166     0.007504
AU656   AU        0.163880    0.293212    0.250568     0.007504
AU657   AU        0.162702    0.347311    0.250317     0.007504
AU658   AU        0.190084    0.268572    0.280407     0.007504
AU659   AU        0.179820    0.319082    0.213959     0.007504
AU660   AU        0.220243    0.288354    0.224143     0.007504
NI661   NI        0.203170    0.314643    0.260765     0.004307
AU662   AU        0.259001    0.286690    0.256272     0.007504
AU663   AU        0.255768    0.324171    0.223354     0.007504
AU664   AU        0.292544    0.286018    0.220077     0.007504
AU665   AU        0.290382    0.321768    0.255970     0.007504
NI666   NI        0.329476    0.284453    0.253580     0.004307
NI667   NI        0.327804    0.321830    0.215555     0.004307
NI668   NI        0.394134    0.275326    0.204240     0.004307
NI669   NI        0.396228    0.293885    0.250863     0.004307
NI670   NI        0.439235    0.268009    0.249850     0.004307
NI671   NI        0.415044    0.334254    0.229845     0.004307
NI672   NI        0.447568    0.303948    0.228018     0.004307
NI673   NI        0.449414    0.335100    0.263641     0.004307
NI674   NI        0.481928    0.264980    0.265822     0.004307
NI675   NI        0.476740    0.355849    0.231088     0.004307
NI676   NI        0.520360    0.295934    0.210536     0.004307
NI677   NI        0.487590    0.308294    0.244834     0.004307
NI678   NI        0.545633    0.271298    0.273070     0.004307
NI679   NI        0.543435    0.340097    0.212320     0.004307
NI680   NI        0.576124    0.296858    0.217271     0.004307
NI681   NI        0.573072    0.338027    0.245954     0.004307
NI682   NI        0.593808    0.287966    0.279455     0.004307
AU683   AU        0.616343    0.327735    0.216169     0.007504
AU684   AU        0.654882    0.290212    0.217030     0.007504
NI685   NI        0.649582    0.327232    0.246895     0.004307
AU686   AU        0.703935    0.279249    0.246286     0.007504
AU687   AU        0.692053    0.323717    0.222132     0.007504
AU688   AU        0.736768    0.303833    0.214694     0.007504
AU689   AU        0.731154    0.323730    0.256453     0.007504
AU690   AU        0.748679    0.272374    0.251524     0.007504
AU691   AU        0.778751    0.314014    0.236725     0.007504
NI692   NI        0.805065    0.329969    0.275880     0.004307
NI693   NI        0.043340    0.380389    0.245388     0.004307
NI694   NI        0.076236    0.336724    0.253167     0.004307
AU695   AU        0.085387    0.384141    0.258406     0.007504
AU696   AU        0.121020    0.353640    0.273421     0.007504
AU697   AU        0.126761    0.385595    0.227226     0.007504
AU698   AU        0.141560    0.347227    0.201828     0.007504
AU699   AU        0.156783    0.396458    0.261141     0.007504
NI700   NI        0.195899    0.363287    0.271819     0.004307
AU701   AU        0.189831    0.394268    0.222403     0.007504
NI702   NI        0.217868    0.354566    0.217687     0.004307
AU703   AU        0.221709    0.396106    0.258848     0.007504
NI704   NI        0.258001    0.362981    0.260144     0.004307
AU705   AU        0.262053    0.400149    0.223099     0.007504
NI706   NI        0.290073    0.359163    0.221330     0.004307
NI707   NI        0.309701    0.394114    0.286707     0.004307
NI708   NI        0.334402    0.338574    0.258957     0.004307
NI709   NI        0.315583    0.400372    0.229694     0.004307
NI710   NI        0.345961    0.364891    0.221458     0.004307
NI711   NI        0.354669    0.372525    0.274516     0.004307
NI712   NI        0.397766    0.364561    0.261373     0.004307
NI713   NI        0.380549    0.396666    0.231264     0.004307
NI714   NI        0.435441    0.374073    0.241409     0.004307
NI715   NI        0.430624    0.411283    0.274326     0.004307
AU716   AU        0.471933    0.379588    0.276814     0.007504
NI717   NI        0.457033    0.408960    0.233568     0.004307
NI718   NI        0.502052    0.395428    0.242535     0.004307
NI719   NI        0.534609    0.365259    0.258061     0.004307
NI720   NI        0.577437    0.360755    0.286741     0.004307
NI721   NI        0.540819    0.394427    0.219422     0.004307
NI722   NI        0.577213    0.373584    0.202220     0.004307
NI723   NI        0.549873    0.425354    0.261893     0.004307
NI724   NI        0.608313    0.361294    0.241344     0.004307
NI725   NI        0.573941    0.391786    0.247654     0.004307
AU726   AU        0.654506    0.360610    0.213133     0.007504
NI727   NI        0.635163    0.381324    0.269961     0.004307
AU728   AU        0.687074    0.354913    0.252543     0.007504
AU729   AU        0.691221    0.394512    0.223180     0.007504
AU730   AU        0.726373    0.359373    0.221701     0.007504
AU731   AU        0.720269    0.390045    0.264273     0.007504
AU732   AU        0.765807    0.358206    0.254163     0.007504
AU733   AU        0.752446    0.402430    0.229145     0.007504
NI734   NI        0.803548    0.359227    0.230461     0.004307
AU735   AU        0.798841    0.396117    0.255136     0.007504
NI736   NI        0.837869    0.345421    0.310948     0.004307
NI737   NI        0.045684    0.450035    0.211693     0.004307
NI738   NI        0.093060    0.413825    0.214354     0.004307
AU739   AU        0.076835    0.459864    0.249725     0.007504
AU740   AU        0.114899    0.426839    0.254135     0.007504
AU741   AU        0.116784    0.460333    0.218996     0.007504
AU742   AU        0.153163    0.428552    0.220712     0.007504
AU743   AU        0.148436    0.465605    0.254624     0.007504
AU744   AU        0.185279    0.431010    0.254155     0.007504
AU745   AU        0.186279    0.468773    0.224181     0.007504
AU746   AU        0.222688    0.434331    0.226061     0.007504
NI747   NI        0.221366    0.472959    0.257633     0.004307
NI748   NI        0.262011    0.451557    0.266801     0.004307
AU749   AU        0.256143    0.475924    0.220487     0.007504
NI750   NI        0.286973    0.436787    0.223270     0.004307
NI751   NI        0.285627    0.492310    0.279467     0.004307
NI752   NI        0.340698    0.447061    0.229295     0.004307
NI753   NI        0.305126    0.476671    0.238737     0.004307
NI754   NI        0.347029    0.411772    0.252272     0.004307
AU755   AU        0.344451    0.480221    0.256076     0.007504
NI756   NI        0.380125    0.445767    0.253293     0.004307
NI757   NI        0.413327    0.459404    0.216734     0.004307
NI758   NI        0.415048    0.417645    0.230950     0.004307
AU759   AU        0.437857    0.460630    0.256937     0.007504
NI760   NI        0.470678    0.433021    0.265019     0.004307
AU761   AU        0.472590    0.451915    0.220982     0.007504
NI762   NI        0.503381    0.421187    0.204489     0.004307
AU763   AU        0.507759    0.480544    0.220363     0.007504
NI764   NI        0.515090    0.444094    0.243804     0.004307
NI765   NI        0.553745    0.491926    0.212270     0.004307
NI766   NI        0.599752    0.441822    0.231887     0.004307
NI767   NI        0.557192    0.466455    0.244932     0.004307
NI768   NI        0.607659    0.416871    0.265849     0.004307
NI769   NI        0.637006    0.444469    0.199159     0.004307
NI770   NI        0.642806    0.407502    0.235729     0.004307
NI771   NI        0.636566    0.462880    0.261464     0.004307
AU772   AU        0.685188    0.430565    0.259058     0.007504
AU773   AU        0.668080    0.468332    0.230223     0.007504
AU774   AU        0.708694    0.434224    0.220875     0.007504
AU775   AU        0.710186    0.476661    0.254384     0.007504
AU776   AU        0.733844    0.436676    0.258658     0.007504
AU777   AU        0.752393    0.478457    0.235454     0.007504
AU778   AU        0.783075    0.440229    0.238848     0.007504
AU779   AU        0.789733    0.484618    0.262419     0.007504
NI780   NI        0.823420    0.444435    0.267044     0.004307
NI781   NI        0.031586    0.434596    0.276440     0.004307
NI782   NI        0.096738    0.515343    0.202402     0.004307
NI783   NI        0.064887    0.498799    0.262193     0.004307
AU784   AU        0.109713    0.499639    0.254461     0.007504
NI785   NI        0.078531    0.560507    0.267027     0.004307
AU786   AU        0.147071    0.501153    0.220046     0.007504
AU787   AU        0.144312    0.538128    0.256687     0.007504
AU788   AU        0.181731    0.503944    0.259495     0.007504
AU789   AU        0.180055    0.542670    0.222377     0.007504
AU790   AU        0.219209    0.508603    0.220221     0.007504
AU791   AU        0.214759    0.543458    0.256209     0.007504
NI792   NI        0.252598    0.511293    0.255552     0.004307
AU793   AU        0.251291    0.547678    0.217723     0.007504
AU794   AU        0.290269    0.514481    0.214680     0.007504
NI795   NI        0.289404    0.563975    0.233532     0.004307
NI796   NI        0.322627    0.513844    0.242022     0.004307
AU797   AU        0.330882    0.545975    0.210333     0.007504
AU798   AU        0.373217    0.491163    0.215548     0.007504
AU799   AU        0.367959    0.529267    0.245315     0.007504
AU800   AU        0.403163    0.493263    0.254390     0.007504
AU801   AU        0.411959    0.529006    0.222110     0.007504
AU802   AU        0.446618    0.495403    0.220494     0.007504
AU803   AU        0.440900    0.522463    0.263612     0.007504
AU804   AU        0.476193    0.481643    0.260506     0.007504
AU805   AU        0.486589    0.525073    0.240793     0.007504
NI806   NI        0.520508    0.500011    0.183104     0.004307
AU807   AU        0.516457    0.535408    0.276482     0.007504
NI808   NI        0.534136    0.513508    0.243621     0.004307
NI809   NI        0.542889    0.532344    0.202627     0.004307
NI810   NI        0.595303    0.487298    0.239426     0.004307
NI811   NI        0.563071    0.541496    0.253290     0.004307
NI812   NI        0.602133    0.524226    0.262527     0.004307
AU813   AU        0.609201    0.563060    0.228883     0.007504
NI814   NI        0.629064    0.518955    0.228972     0.004307
AU815   AU        0.639743    0.555955    0.260290     0.007504
NI816   NI        0.681410    0.524293    0.249958     0.004307
NI817   NI        0.668784    0.519529    0.207222     0.004307
AU818   AU        0.728052    0.518294    0.225358     0.007504
AU819   AU        0.718406    0.548945    0.270249     0.007504
AU820   AU        0.751034    0.514286    0.267630     0.007504
NI821   NI        0.779006    0.515572    0.217060     0.004307
NI822   NI        0.784748    0.471595    0.195518     0.004307
AU823   AU        0.791589    0.532757    0.278254     0.007504
NI824   NI        0.820986    0.520383    0.235150     0.004307
NI825   NI        0.085481    0.609853    0.252785     0.004307
NI826   NI        0.118715    0.581908    0.255976     0.004307
NI827   NI        0.124054    0.620020    0.218647     0.004307
AU828   AU        0.142586    0.577270    0.220923     0.007504
AU829   AU        0.153139    0.620217    0.257561     0.007504
AU830   AU        0.179627    0.577989    0.258118     0.007504
AU831   AU        0.176719    0.614864    0.219763     0.007504
AU832   AU        0.212399    0.578402    0.221786     0.007504
AU833   AU        0.216983    0.614795    0.253913     0.007504
AU834   AU        0.247650    0.580678    0.255401     0.007504
AU835   AU        0.259143    0.618529    0.233221     0.007504
NI836   NI        0.297267    0.603635    0.211568     0.004307
NI837   NI        0.295952    0.602098    0.268996     0.004307
NI838   NI        0.333612    0.552659    0.261676     0.004307
NI839   NI        0.331702    0.589651    0.232278     0.004307
AU840   AU        0.373835    0.567902    0.224119     0.007504
NI841   NI        0.391023    0.601404    0.263117     0.004307
AU842   AU        0.406588    0.559726    0.260016     0.007504
NI843   NI        0.368686    0.618104    0.231212     0.004307
AU844   AU        0.447112    0.559481    0.230011     0.007504
AU845   AU        0.442844    0.598836    0.263326     0.007504
AU846   AU        0.472483    0.559963    0.271981     0.007504
NI847   NI        0.458477    0.619324    0.218112     0.004307
NI848   NI        0.487968    0.610072    0.271040     0.004307
NI849   NI        0.527566    0.625299    0.272155     0.004307
NI850   NI        0.489711    0.587467    0.235797     0.004307
NI851   NI        0.550521    0.646231    0.241313     0.004307
NI852   NI        0.567121    0.581206    0.241000     0.004307
NI853   NI        0.571165    0.619447    0.272751     0.004307
AU854   AU        0.605841    0.586921    0.277992     0.007504
AU855   AU        0.607237    0.613561    0.236082     0.007504
AU856   AU        0.652597    0.590456    0.223995     0.007504
AU857   AU        0.644671    0.616788    0.266842     0.007504
AU858   AU        0.683859    0.584999    0.261815     0.007504
AU859   AU        0.689507    0.622303    0.221403     0.007504
AU860   AU        0.725261    0.587203    0.237296     0.007504
AU861   AU        0.713896    0.626396    0.258200     0.007504
AU862   AU        0.761394    0.553697    0.242376     0.007504
NI863   NI        0.773106    0.594493    0.227016     0.004307
NI864   NI        0.803105    0.613999    0.300587     0.004307
NI865   NI        0.115678    0.653359    0.261131     0.004307
NI866   NI        0.149769    0.657375    0.226067     0.004307
NI867   NI        0.139487    0.713344    0.217570     0.004307
AU868   AU        0.187433    0.654708    0.258732     0.007504
NI869   NI        0.192350    0.696976    0.231163     0.004307
AU870   AU        0.224110    0.659163    0.227191     0.007504
AU871   AU        0.224541    0.690051    0.267266     0.007504
AU872   AU        0.258466    0.653987    0.260401     0.007504
AU873   AU        0.258528    0.691709    0.234150     0.007504
AU874   AU        0.292244    0.654473    0.215254     0.007504
AU875   AU        0.303612    0.678476    0.260308     0.007504
NI876   NI        0.325874    0.642304    0.248665     0.004307
AU877   AU        0.334857    0.683508    0.224245     0.007504
AU878   AU        0.379701    0.665358    0.220872     0.007504
AU879   AU        0.358079    0.675607    0.268563     0.007504
NI880   NI        0.409645    0.665693    0.260747     0.004307
AU881   AU        0.416468    0.690717    0.218171     0.007504
NI882   NI        0.417252    0.627797    0.231416     0.004307
NI883   NI        0.448289    0.694162    0.254666     0.004307
NI884   NI        0.456646    0.646832    0.264390     0.004307
NI885   NI        0.481753    0.674622    0.239821     0.004307
NI886   NI        0.514366    0.657470    0.212861     0.004307
AU887   AU        0.524101    0.681912    0.252901     0.007504
NI888   NI        0.571206    0.669260    0.290325     0.004307
AU889   AU        0.547209    0.686968    0.206150     0.007504
AU890   AU        0.582727    0.653985    0.211267     0.007504
AU891   AU        0.571019    0.693126    0.242479     0.007504
AU892   AU        0.606081    0.660781    0.257860     0.007504
AU893   AU        0.619783    0.680134    0.219663     0.007504
AU894   AU        0.646069    0.643387    0.226345     0.007504
AU895   AU        0.646750    0.687930    0.255265     0.007504
AU896   AU        0.681832    0.655396    0.258659     0.007504
NI897   NI        0.661369    0.679801    0.215971     0.004307
NI898   NI        0.706255    0.670536    0.211878     0.004307
NI899   NI        0.740679    0.696707    0.282157     0.004307
NI900   NI        0.739985    0.669335    0.250360     0.004307
NI901   NI        0.160646    0.722248    0.258102     0.004307
NI902   NI        0.229759    0.727806    0.232517     0.004307
NI903   NI        0.193501    0.751872    0.248959     0.004307
AU904   AU        0.255396    0.728235    0.271019     0.007504
NI905   NI        0.256835    0.762758    0.243337     0.004307
AU906   AU        0.290722    0.724555    0.239946     0.007504
AU907   AU        0.290749    0.762521    0.278226     0.007504
AU908   AU        0.337382    0.719825    0.258515     0.007504
AU909   AU        0.332897    0.768777    0.253178     0.007504
AU910   AU        0.374792    0.718453    0.224907     0.007504
AU911   AU        0.375774    0.752130    0.262324     0.007504
AU912   AU        0.414247    0.721708    0.258139     0.007504
AU913   AU        0.408296    0.752037    0.222088     0.007504
AU914   AU        0.454259    0.723274    0.221628     0.007504
AU915   AU        0.448850    0.750448    0.258277     0.007504
AU916   AU        0.490271    0.721291    0.260717     0.007504
AU917   AU        0.473350    0.769052    0.210772     0.007504
AU918   AU        0.502805    0.715119    0.215180     0.007504
AU919   AU        0.499326    0.768936    0.249353     0.007504
AU920   AU        0.536395    0.731298    0.255764     0.007504
AU921   AU        0.543694    0.773417    0.231164     0.007504
AU922   AU        0.591165    0.710176    0.203155     0.007504
AU923   AU        0.582175    0.744523    0.243376     0.007504
AU924   AU        0.608981    0.711474    0.256057     0.007504
NI925   NI        0.630411    0.774110    0.238446     0.004307
NI926   NI        0.629574    0.724699    0.221602     0.004307
NI927   NI        0.664492    0.778961    0.279743     0.004307
NI928   NI        0.677374    0.724969    0.234694     0.004307
NI929   NI        0.212884    0.774406    0.292575     0.004307
NI930   NI        0.331773    0.811629    0.262293     0.004307
NI931   NI        0.391224    0.820422    0.240451     0.004307
NI932   NI        0.367856    0.775674    0.224351     0.004307
AU933   AU        0.411380    0.785665    0.257963     0.007504
NI934   NI        0.420891    0.792525    0.216710     0.004307
NI935   NI        0.428671    0.833004    0.264651     0.004307
AU936   AU        0.459934    0.798931    0.248940     0.007504
NI937   NI        0.507110    0.805030    0.216729     0.004307
NI938   NI        0.498409    0.828413    0.255893     0.004307
NI939   NI        0.546684    0.814493    0.251196     0.004307
NI940   NI        0.585299    0.793506    0.242623     0.004307
NI941   NI        0.286573    0.038930    0.327505     0.004307
NI942   NI        0.339395    0.033787    0.308147     0.004307
NI943   NI        0.381227    0.037114    0.322124     0.004307
NI944   NI        0.405431    0.056853    0.283151     0.004307
AU945   AU        0.437707    0.042544    0.324670     0.007504
NI946   NI        0.483931    0.022016    0.320570     0.004307
NI947   NI        0.518960    0.023946    0.347222     0.004307
NI948   NI        0.511671    0.067831    0.238984     0.004307
NI949   NI        0.566095    0.022402    0.323207     0.004307
NI950   NI        0.171545    0.127178    0.315306     0.004307
AU951   AU        0.220561    0.105976    0.327558     0.007504
NI952   NI        0.247389    0.072399    0.325647     0.004307
AU953   AU        0.252236    0.107633    0.288650     0.007504
NI954   NI        0.287037    0.073720    0.291124     0.004307
AU955   AU        0.287196    0.108145    0.326095     0.007504
AU956   AU        0.325562    0.074705    0.326410     0.007504
AU957   AU        0.323750    0.105693    0.287223     0.007504
AU958   AU        0.362828    0.070683    0.291769     0.007504
AU959   AU        0.360092    0.106483    0.324042     0.007504
AU960   AU        0.400765    0.076341    0.327044     0.007504
AU961   AU        0.397615    0.107801    0.287862     0.007504
AU962   AU        0.440557    0.079661    0.295754     0.007504
AU963   AU        0.432344    0.110708    0.325633     0.007504
AU964   AU        0.479982    0.072202    0.329302     0.007504
AU965   AU        0.475828    0.111653    0.299587     0.007504
AU966   AU        0.525539    0.083513    0.301087     0.007504
AU967   AU        0.513490    0.108201    0.338148     0.007504
AU968   AU        0.552775    0.069951    0.340212     0.007504
AU969   AU        0.548296    0.117320    0.274219     0.007504
AU970   AU        0.573108    0.089075    0.300715     0.007504
AU971   AU        0.595751    0.103240    0.343801     0.007504
NI972   NI        0.596870    0.056548    0.330147     0.004307
AU973   AU        0.615508    0.122703    0.298202     0.007504
AU974   AU        0.647204    0.120757    0.337353     0.007504
NI975   NI        0.660350    0.096081    0.301623     0.004307
NI976   NI        0.125926    0.196593    0.280642     0.004307
NI977   NI        0.155986    0.166452    0.303024     0.004307
AU978   AU        0.151271    0.197397    0.341710     0.007504
AU979   AU        0.189938    0.171177    0.332330     0.007504
AU980   AU        0.173581    0.206696    0.298811     0.007504
AU981   AU        0.215949    0.146841    0.297483     0.007504
AU982   AU        0.237977    0.179903    0.332381     0.007504
AU983   AU        0.256670    0.140281    0.326013     0.007504
AU984   AU        0.253984    0.178172    0.288273     0.007504
AU985   AU        0.288409    0.142331    0.287152     0.007504
AU986   AU        0.288741    0.177442    0.324763     0.007504
AU987   AU        0.320106    0.138090    0.324742     0.007504
AU988   AU        0.325183    0.175719    0.286398     0.007504
AU989   AU        0.359354    0.137902    0.285626     0.007504
NI990   NI        0.353553    0.171181    0.324655     0.004307
NI991   NI        0.396758    0.150620    0.316384     0.004307
NI992   NI        0.382920    0.196194    0.306316     0.004307
AU993   AU        0.448465    0.155113    0.300598     0.007504
NI994   NI        0.407003    0.226497    0.338092     0.004307
NI995   NI        0.480485    0.146619    0.341215     0.004307
NI996   NI        0.494890    0.178775    0.305484     0.004307
AU997   AU        0.512686    0.135545    0.295098     0.007504
NI998   NI        0.492821    0.188766    0.350933     0.004307
AU999   AU        0.555073    0.132081    0.324327     0.007504
NI1000   NI        0.543999    0.170286    0.304513     0.004307
AU1001   AU        0.583349    0.151779    0.290396     0.007504
AU1002   AU        0.579640    0.180191    0.336254     0.007504
AU1003   AU        0.614158    0.147890    0.335903     0.007504
AU1004   AU        0.623267    0.173488    0.294558     0.007504
AU1005   AU        0.662418    0.143634    0.293763     0.007504
AU1006   AU        0.657644    0.171769    0.331762     0.007504
NI1007   NI        0.694714    0.140161    0.327451     0.004307
NI1008   NI        0.714495    0.181342    0.294778     0.004307
NI1009   NI        0.695981    0.161855    0.263806     0.004307
NI1010   NI        0.732821    0.167903    0.330334     0.004307
NI1011   NI        0.754041    0.199279    0.275860     0.004307
NI1012   NI        0.101586    0.188596    0.316397     0.004307
AU1013   AU        0.106288    0.212422    0.360950     0.007504
AU1014   AU        0.102974    0.259637    0.330786     0.007504
AU1015   AU        0.134970    0.231130    0.308972     0.007504
AU1016   AU        0.143686    0.245205    0.355247     0.007504
AU1017   AU        0.191635    0.226931    0.340764     0.007504
AU1018   AU        0.168071    0.266444    0.321629     0.007504
AU1019   AU        0.217502    0.200410    0.299748     0.007504
NI1020   NI        0.231202    0.261979    0.340291     0.004307
NI1021   NI        0.257051    0.217785    0.322050     0.004307
AU1022   AU        0.263933    0.257320    0.294786     0.007504
AU1023   AU        0.292753    0.213476    0.291918     0.007504
NI1024   NI        0.289153    0.263943    0.332279     0.004307
NI1025   NI        0.304220    0.223422    0.345632     0.004307
NI1026   NI        0.310494    0.257430    0.284318     0.004307
NI1027   NI        0.341124    0.225038    0.302713     0.004307
NI1028   NI        0.331436    0.263801    0.330633     0.004307
NI1029   NI        0.355373    0.222372    0.341538     0.004307
NI1030   NI        0.397199    0.230865    0.284523     0.004307
NI1031   NI        0.430294    0.200480    0.296589     0.004307
NI1032   NI        0.406620    0.271375    0.333189     0.004307
NI1033   NI        0.449930    0.237647    0.323852     0.004307
NI1034   NI        0.488819    0.264391    0.315860     0.004307
NI1035   NI        0.519238    0.214038    0.305126     0.004307
NI1036   NI        0.505558    0.238755    0.349176     0.004307
NI1037   NI        0.543214    0.206489    0.348885     0.004307
NI1038   NI        0.535146    0.254170    0.319641     0.004307
NI1039   NI        0.565415    0.217711    0.312168     0.004307
NI1040   NI        0.570165    0.280046    0.346014     0.004307
AU1041   AU        0.620408    0.209416    0.327651     0.007504
NI1042   NI        0.592264    0.252470    0.315091     0.004307
AU1043   AU        0.666600    0.193798    0.284621     0.007504
NI1044   NI        0.642639    0.248082    0.343968     0.004307
AU1045   AU        0.695670    0.205192    0.325137     0.007504
AU1046   AU        0.670972    0.241734    0.302800     0.007504
AU1047   AU        0.737278    0.217493    0.321192     0.007504
AU1048   AU        0.717637    0.256185    0.319729     0.007504
NI1049   NI        0.772867    0.192013    0.334267     0.004307
AU1050   AU        0.762996    0.257639    0.297786     0.007504
NI1051   NI        0.785336    0.241812    0.332476     0.004307
NI1052   NI        0.087364    0.252726    0.224343     0.004307
NI1053   NI        0.028363    0.386068    0.326422     0.004307
NI1054   NI        0.093239    0.285658    0.261012     0.004307
NI1055   NI        0.063481    0.278172    0.330322     0.004307
AU1056   AU        0.102904    0.305884    0.319695     0.007504
AU1057   AU        0.145840    0.321384    0.289365     0.007504
AU1058   AU        0.129764    0.275082    0.288146     0.007504
AU1059   AU        0.159542    0.330145    0.335351     0.007504
NI1060   NI        0.198484    0.297634    0.340156     0.004307
AU1061   AU        0.200622    0.334339    0.302537     0.007504
AU1062   AU        0.232410    0.296215    0.302585     0.007504
AU1063   AU        0.233837    0.336409    0.338051     0.007504
NI1064   NI        0.275887    0.304170    0.338416     0.004307
NI1065   NI        0.249677    0.334632    0.292220     0.004307
NI1066   NI        0.281322    0.302233    0.293062     0.004307
NI1067   NI        0.300811    0.332776    0.320744     0.004307
NI1068   NI        0.317484    0.297403    0.350864     0.004307
NI1069   NI        0.330774    0.306579    0.301061     0.004307
NI1070   NI        0.366349    0.284212    0.316482     0.004307
NI1071   NI        0.350560    0.324926    0.338576     0.004307
NI1072   NI        0.381359    0.297327    0.383031     0.004307
NI1073   NI        0.395489    0.318559    0.326777     0.004307
NI1074   NI        0.406650    0.280929    0.290917     0.004307
NI1075   NI        0.422727    0.359955    0.342668     0.004307
NI1076   NI        0.451546    0.284740    0.341534     0.004307
NI1077   NI        0.437165    0.308240    0.300397     0.004307
NI1078   NI        0.481932    0.303229    0.290130     0.004307
AU1079   AU        0.503562    0.334780    0.322674     0.007504
NI1080   NI        0.523786    0.294955    0.343322     0.004307
NI1081   NI        0.530580    0.312407    0.274769     0.004307
NI1082   NI        0.558592    0.299446    0.307380     0.004307
NI1083   NI        0.580817    0.336099    0.327090     0.004307
NI1084   NI        0.599275    0.299766    0.320381     0.004307
NI1085   NI        0.658287    0.342157    0.289414     0.004307
NI1086   NI        0.627621    0.273430    0.302452     0.004307
NI1087   NI        0.640838    0.311136    0.329524     0.004307
NI1088   NI        0.672328    0.279670    0.333538     0.004307
AU1089   AU        0.685782    0.311624    0.272568     0.007504
AU1090   AU        0.726166    0.290367    0.292685     0.007504
AU1091   AU        0.730175    0.318407    0.334966     0.007504
AU1092   AU        0.759582    0.283440    0.332758     0.007504
AU1093   AU        0.751682    0.345705    0.298444     0.007504
AU1094   AU        0.770678    0.300383    0.282204     0.007504
AU1095   AU        0.791504    0.325603    0.323320     0.007504
NI1096   NI        0.839974    0.283917    0.380951     0.004307
NI1097   NI        0.802844    0.278742    0.303907     0.004307
AU1098   AU        0.072279    0.340781    0.340347     0.007504
NI1099   NI        0.040420    0.393394    0.287010     0.004307
NI1100   NI        0.042184    0.348344    0.307309     0.004307
AU1101   AU        0.077651    0.384607    0.318019     0.007504
AU1102   AU        0.115975    0.352731    0.321061     0.007504
AU1103   AU        0.118583    0.393763    0.294001     0.007504
AU1104   AU        0.161590    0.366148    0.299195     0.007504
AU1105   AU        0.151470    0.398669    0.333479     0.007504
AU1106   AU        0.194153    0.371376    0.336189     0.007504
AU1107   AU        0.191816    0.403444    0.297550     0.007504
AU1108   AU        0.233126    0.374098    0.304671     0.007504
NI1109   NI        0.225832    0.423680    0.332005     0.004307
NI1110   NI        0.276967    0.372486    0.312277     0.004307
NI1111   NI        0.269911    0.406382    0.277123     0.004307
NI1112   NI        0.302078    0.351784    0.282908     0.004307
NI1113   NI        0.275807    0.412332    0.321817     0.004307
NI1114   NI        0.339667    0.347454    0.304751     0.004307
NI1115   NI        0.347808    0.404462    0.310426     0.004307
NI1116   NI        0.369602    0.326519    0.280283     0.004307
NI1117   NI        0.368135    0.388132    0.343006     0.004307
NI1118   NI        0.381086    0.360002    0.307521     0.004307
NI1119   NI        0.384982    0.401096    0.281449     0.004307
NI1120   NI        0.438511    0.351524    0.301371     0.004307
NI1121   NI        0.422434    0.395633    0.315076     0.004307
AU1122   AU        0.468485    0.370489    0.326287     0.007504
NI1123   NI        0.466230    0.420219    0.306006     0.004307
NI1124   NI        0.502551    0.342958    0.277898     0.004307
AU1125   AU        0.507321    0.383286    0.310509     0.007504
AU1126   AU        0.543106    0.359576    0.321676     0.007504
NI1127   NI        0.537976    0.416843    0.302887     0.004307
NI1128   NI        0.574721    0.400932    0.296101     0.004307
NI1129   NI        0.575674    0.430540    0.333426     0.004307
NI1130   NI        0.616484    0.335243    0.289695     0.004307
NI1131   NI        0.610765    0.392270    0.312027     0.004307
NI1132   NI        0.650222    0.374509    0.314202     0.004307
NI1133   NI        0.656094    0.455952    0.341984     0.004307
NI1134   NI        0.680870    0.376844    0.346026     0.004307
NI1135   NI        0.685065    0.393091    0.295716     0.004307
AU1136   AU        0.702633    0.351536    0.295130     0.007504
AU1137   AU        0.734053    0.387960    0.316420     0.007504
AU1138   AU        0.771619    0.366273    0.343981     0.007504
AU1139   AU        0.762973    0.399569    0.280217     0.007504
AU1140   AU        0.795477    0.368385    0.298723     0.007504
AU1141   AU        0.776114    0.410501    0.329499     0.007504
AU1142   AU        0.811577    0.346810    0.362564     0.007504
NI1143   NI        0.814490    0.408375    0.297209     0.004307
NI1144   NI        0.055069    0.430117    0.320025     0.004307
AU1145   AU        0.056229    0.468971    0.301210     0.007504
AU1146   AU        0.078336    0.425421    0.284738     0.007504
AU1147   AU        0.087959    0.473359    0.337147     0.007504
AU1148   AU        0.110736    0.427978    0.323691     0.007504
AU1149   AU        0.108247    0.462375    0.288591     0.007504
AU1150   AU        0.148682    0.427519    0.291245     0.007504
AU1151   AU        0.149291    0.462945    0.325443     0.007504
NI1152   NI        0.184735    0.424680    0.340044     0.004307
AU1153   AU        0.185598    0.464569    0.291418     0.007504
NI1154   NI        0.235897    0.426399    0.290388     0.004307
NI1155   NI        0.204346    0.464448    0.340280     0.004307
NI1156   NI        0.270247    0.440911    0.379470     0.004307
NI1157   NI        0.253456    0.474188    0.305609     0.004307
NI1158   NI        0.304661    0.438120    0.263746     0.004307
NI1159   NI        0.278203    0.457219    0.338658     0.004307
NI1160   NI        0.337051    0.440465    0.347568     0.004307
NI1161   NI        0.309914    0.450033    0.311081     0.004307
NI1162   NI        0.347407    0.438844    0.283820     0.004307
NI1163   NI        0.366086    0.472053    0.349533     0.004307
NI1164   NI        0.380523    0.431666    0.332022     0.004307
NI1165   NI        0.406406    0.484180    0.327519     0.004307
NI1166   NI        0.404263    0.450232    0.297804     0.004307
NI1167   NI        0.428908    0.448080    0.330447     0.004307
NI1168   NI        0.499080    0.432580    0.325971     0.004307
NI1169   NI        0.477799    0.475814    0.304634     0.004307
NI1170   NI        0.504427    0.448052    0.284677     0.004307
NI1171   NI        0.517621    0.487504    0.317875     0.004307
NI1172   NI        0.536746    0.453187    0.334016     0.004307
NI1173   NI        0.555906    0.460086    0.293750     0.004307
NI1174   NI        0.594736    0.442654    0.295403     0.004307
NI1175   NI        0.592219    0.472417    0.327587     0.004307
NI1176   NI        0.620506    0.435126    0.331635     0.004307
NI1177   NI        0.590918    0.492307    0.290022     0.004307
NI1178   NI        0.645052    0.422032    0.299424     0.004307
NI1179   NI        0.633060    0.469915    0.309966     0.004307
NI1180   NI        0.692136    0.428263    0.350420     0.004307
AU1181   AU        0.675678    0.466402    0.295663     0.007504
AU1182   AU        0.714468    0.428030    0.297766     0.007504
AU1183   AU        0.714624    0.469703    0.328891     0.007504
NI1184   NI        0.738106    0.424386    0.347821     0.004307
AU1185   AU        0.747819    0.473765    0.287870     0.007504
AU1186   AU        0.786221    0.438051    0.290513     0.007504
AU1187   AU        0.767175    0.460532    0.331770     0.007504
AU1188   AU        0.822963    0.430992    0.336667     0.007504
NI1189   NI        0.830392    0.498009    0.297655     0.004307
NI1190   NI        0.014426    0.491703    0.311750     0.004307
NI1191   NI        0.046225    0.560715    0.315894     0.004307
AU1192   AU        0.093238    0.510130    0.304658     0.007504
AU1193   AU        0.092190    0.545238    0.337252     0.007504
AU1194   AU        0.124634    0.503392    0.343696     0.007504
AU1195   AU        0.114153    0.549748    0.293822     0.007504
AU1196   AU        0.143353    0.501037    0.293259     0.007504
AU1197   AU        0.142919    0.551083    0.332592     0.007504
NI1198   NI        0.176249    0.497140    0.332660     0.004307
AU1199   AU        0.176298    0.541527    0.295511     0.007504
NI1200   NI        0.212947    0.503148    0.298570     0.004307
NI1201   NI        0.209244    0.533114    0.331255     0.004307
NI1202   NI        0.244610    0.499915    0.341494     0.004307
NI1203   NI        0.250309    0.523430    0.301238     0.004307
NI1204   NI        0.282860    0.509334    0.332060     0.004307
NI1205   NI        0.283836    0.562818    0.339200     0.004307
NI1206   NI        0.321927    0.488997    0.343255     0.004307
NI1207   NI        0.324500    0.505100    0.299247     0.004307
NI1208   NI        0.364602    0.480018    0.300945     0.004307
NI1209   NI        0.327619    0.556427    0.326139     0.004307
NI1210   NI        0.377759    0.523182    0.331674     0.004307
NI1211   NI        0.399028    0.518453    0.289308     0.004307
AU1212   AU        0.438990    0.487897    0.297136     0.007504
NI1213   NI        0.426299    0.525663    0.330470     0.004307
NI1214   NI        0.456237    0.499925    0.343723     0.004307
AU1215   AU        0.474060    0.524393    0.304809     0.007504
NI1216   NI        0.527215    0.485473    0.277964     0.004307
NI1217   NI        0.509054    0.524893    0.342612     0.004307
NI1218   NI        0.529054    0.489883    0.361033     0.004307
NI1219   NI        0.539129    0.542424    0.322270     0.004307
NI1220   NI        0.551234    0.506725    0.303460     0.004307
NI1221   NI        0.580670    0.559588    0.336664     0.004307
NI1222   NI        0.626371    0.508544    0.320713     0.004307
NI1223   NI        0.615115    0.549012    0.307755     0.004307
NI1224   NI        0.651649    0.507360    0.277762     0.004307
NI1225   NI        0.660675    0.547011    0.335957     0.004307
AU1226   AU        0.674435    0.501194    0.328718     0.007504
AU1227   AU        0.674310    0.542244    0.294796     0.007504
AU1228   AU        0.709769    0.505838    0.294364     0.007504
AU1229   AU        0.706432    0.540649    0.326610     0.007504
AU1230   AU        0.744031    0.504958    0.329552     0.007504
AU1231   AU        0.748848    0.547401    0.308017     0.007504
AU1232   AU        0.791540    0.491227    0.313027     0.007504
AU1233   AU        0.786689    0.531699    0.324624     0.007504
NI1234   NI        0.827995    0.519630    0.333873     0.004307
NI1235   NI        0.861762    0.539347    0.310924     0.004307
AU1236   AU        0.053118    0.510534    0.333952     0.007504
NI1237   NI        0.082177    0.585322    0.299746     0.004307
NI1238   NI        0.079483    0.615778    0.353704     0.004307
AU1239   AU        0.114144    0.590483    0.333487     0.007504
NI1240   NI        0.119115    0.622558    0.297434     0.004307
AU1241   AU        0.147919    0.588381    0.297343     0.007504
AU1242   AU        0.157086    0.619103    0.333087     0.007504
AU1243   AU        0.186602    0.579444    0.331225     0.007504
AU1244   AU        0.188998    0.618938    0.294235     0.007504
AU1245   AU        0.215443    0.577240    0.294014     0.007504
AU1246   AU        0.222070    0.612137    0.329989     0.007504
NI1247   NI        0.268971    0.565835    0.299935     0.004307
AU1248   AU        0.252814    0.611483    0.288694     0.007504
NI1249   NI        0.294089    0.534716    0.276584     0.004307
NI1250   NI        0.275872    0.602248    0.343230     0.004307
NI1251   NI        0.300782    0.602353    0.309790     0.004307
NI1252   NI        0.347049    0.599724    0.283983     0.004307
AU1253   AU        0.367983    0.556262    0.292224     0.007504
NI1254   NI        0.341505    0.602717    0.330702     0.004307
NI1255   NI        0.371868    0.574246    0.336807     0.004307
NI1256   NI        0.420058    0.632193    0.285877     0.004307
AU1257   AU        0.433283    0.554622    0.300684     0.007504
NI1258   NI        0.404220    0.595818    0.301931     0.004307
NI1259   NI        0.465898    0.555495    0.338724     0.004307
AU1260   AU        0.454561    0.600668    0.306908     0.007504
NI1261   NI        0.502870    0.563312    0.314464     0.004307
AU1262   AU        0.503438    0.606454    0.312741     0.007504
NI1263   NI        0.508485    0.580044    0.356290     0.004307
NI1264   NI        0.543796    0.586353    0.293662     0.004307
NI1265   NI        0.571166    0.545802    0.294600     0.004307
NI1266   NI        0.583906    0.605034    0.354836     0.004307
NI1267   NI        0.627746    0.577453    0.347206     0.004307
NI1268   NI        0.609843    0.606856    0.324003     0.004307
AU1269   AU        0.648502    0.583542    0.302493     0.007504
AU1270   AU        0.654917    0.619478    0.338700     0.007504
NI1271   NI        0.686242    0.587105    0.339071     0.004307
AU1272   AU        0.684037    0.620256    0.297611     0.007504
AU1273   AU        0.718433    0.585493    0.300754     0.007504
AU1274   AU        0.749251    0.623071    0.311769     0.007504
AU1275   AU        0.776829    0.583296    0.328811     0.007504
NI1276   NI        0.759258    0.625501    0.256942     0.004307
AU1277   AU        0.765243    0.589506    0.279571     0.007504
NI1278   NI        0.785904    0.647366    0.329773     0.004307
NI1279   NI        0.824324    0.564571    0.328565     0.004307
AU1280   AU        0.118112    0.644778    0.333707     0.007504
NI1281   NI        0.112330    0.691334    0.292297     0.004307
AU1282   AU        0.151194    0.650467    0.296244     0.007504
AU1283   AU        0.151436    0.682209    0.335918     0.007504
AU1284   AU        0.189180    0.649667    0.334376     0.007504
AU1285   AU        0.188089    0.684595    0.299781     0.007504
AU1286   AU        0.224926    0.653552    0.297958     0.007504
AU1287   AU        0.229579    0.705479    0.316549     0.007504
NI1288   NI        0.258229    0.658636    0.331625     0.004307
AU1289   AU        0.264918    0.683604    0.297107     0.007504
NI1290   NI        0.290610    0.644066    0.289644     0.004307
NI1291   NI        0.304175    0.680915    0.326820     0.004307
NI1292   NI        0.306414    0.633650    0.342961     0.004307
NI1293   NI        0.344680    0.674780    0.340598     0.004307
NI1294   NI        0.332142    0.644952    0.304464     0.004307
NI1295   NI        0.376541    0.635175    0.329549     0.004307
NI1296   NI        0.421218    0.614325    0.335096     0.004307
NI1297   NI        0.394490    0.680580    0.316678     0.004307
NI1298   NI        0.433858    0.679665    0.294097     0.004307
NI1299   NI        0.441652    0.684296    0.334447     0.004307
NI1300   NI        0.468427    0.641316    0.328070     0.004307
NI1301   NI        0.497345    0.672475    0.291577     0.004307
NI1302   NI        0.539149    0.643698    0.306679     0.004307
NI1303   NI        0.523901    0.683224    0.328662     0.004307
NI1304   NI        0.574123    0.650515    0.330836     0.004307
NI1305   NI        0.530955    0.704817    0.291095     0.004307
NI1306   NI        0.611180    0.636413    0.294680     0.004307
AU1307   AU        0.591527    0.702189    0.332734     0.007504
AU1308   AU        0.623703    0.655777    0.334840     0.007504
AU1309   AU        0.622087    0.689706    0.297532     0.007504
AU1310   AU        0.655301    0.658752    0.294791     0.007504
AU1311   AU        0.659364    0.694018    0.332163     0.007504
AU1312   AU        0.683693    0.657808    0.331512     0.007504
AU1313   AU        0.681896    0.695907    0.289038     0.007504
AU1314   AU        0.718664    0.660451    0.296866     0.007504
AU1315   AU        0.713708    0.700093    0.325484     0.007504
NI1316   NI        0.750682    0.674337    0.319953     0.004307
NI1317   NI        0.774842    0.657088    0.289832     0.004307
NI1318   NI        0.144036    0.683752    0.259967     0.004307
NI1319   NI        0.180104    0.722597    0.329552     0.004307
NI1320   NI        0.151694    0.719920    0.299659     0.004307
NI1321   NI        0.208590    0.731285    0.285270     0.004307
NI1322   NI        0.212145    0.766209    0.339086     0.004307
AU1323   AU        0.271955    0.721602    0.330766     0.007504
AU1324   AU        0.247438    0.749108    0.308607     0.007504
AU1325   AU        0.300917    0.718134    0.292447     0.007504
AU1326   AU        0.296063    0.761217    0.322261     0.007504
AU1327   AU        0.332717    0.727378    0.331958     0.007504
AU1328   AU        0.336315    0.753763    0.294027     0.007504
AU1329   AU        0.371301    0.717575    0.296408     0.007504
AU1330   AU        0.374281    0.759032    0.328174     0.007504
NI1331   NI        0.404420    0.716659    0.331795     0.004307
AU1332   AU        0.411362    0.752961    0.295490     0.007504
NI1333   NI        0.446023    0.725996    0.294797     0.004307
AU1334   AU        0.451196    0.761549    0.329714     0.007504
NI1335   NI        0.469152    0.716385    0.335133     0.004307
AU1336   AU        0.483207    0.762582    0.291045     0.007504
NI1337   NI        0.500149    0.724257    0.308938     0.004307
AU1338   AU        0.525163    0.763678    0.318361     0.007504
NI1339   NI        0.540233    0.722989    0.329873     0.004307
AU1340   AU        0.560207    0.766389    0.280643     0.007504
AU1341   AU        0.573995    0.716637    0.285088     0.007504
AU1342   AU        0.577969    0.748365    0.321427     0.007504
AU1343   AU        0.627081    0.734428    0.327471     0.007504
AU1344   AU        0.609541    0.761383    0.284313     0.007504
AU1345   AU        0.646393    0.730309    0.280342     0.007504
NI1346   NI        0.662630    0.771008    0.339863     0.004307
AU1347   AU        0.676745    0.736414    0.316055     0.007504
NI1348   NI        0.715017    0.771229    0.340398     0.004307
NI1349   NI        0.715765    0.738828    0.298815     0.004307
NI1350   NI        0.249172    0.794545    0.279780     0.004307
NI1351   NI        0.365719    0.844928    0.281751     0.004307
NI1352   NI        0.293420    0.801080    0.297766     0.004307
AU1353   AU        0.337022    0.791003    0.327083     0.007504
NI1354   NI        0.335728    0.828167    0.308295     0.004307
AU1355   AU        0.367913    0.794165    0.291763     0.007504
AU1356   AU        0.373860    0.821164    0.340785     0.007504
AU1357   AU        0.410397    0.792267    0.322636     0.007504
NI1358   NI        0.399120    0.827202    0.300526     0.004307
AU1359   AU        0.443239    0.794963    0.292358     0.007504
NI1360   NI        0.423233    0.833730    0.333217     0.004307
AU1361   AU        0.485495    0.799848    0.321751     0.007504
NI1362   NI        0.473039    0.836662    0.302494     0.004307
AU1363   AU        0.517411    0.798304    0.284430     0.007504
NI1364   NI        0.519287    0.826973    0.324791     0.004307
AU1365   AU        0.557369    0.796648    0.325025     0.007504
NI1366   NI        0.534311    0.846051    0.285294     0.004307
NI1367   NI        0.582925    0.811935    0.284868     0.004307
NI1368   NI        0.597306    0.832730    0.346465     0.004307
NI1369   NI        0.619752    0.783946    0.322130     0.004307
NI1370   NI        0.247146    0.049368    0.366920     0.004307
NI1371   NI        0.288924    0.045662    0.399959     0.004307
NI1372   NI        0.326712    0.040702    0.366593     0.004307
AU1373   AU        0.367430    0.044623    0.398772     0.007504
NI1374   NI        0.381963    0.001775    0.379075     0.004307
AU1375   AU        0.401447    0.043059    0.364797     0.007504
NI1376   NI        0.434109    0.001799    0.353573     0.004307
AU1377   AU        0.438248    0.044046    0.401011     0.007504
NI1378   NI        0.461824    0.000714    0.400979     0.004307
AU1379   AU        0.471891    0.037340    0.365491     0.007504
NI1380   NI        0.512074    0.023099    0.392733     0.004307
NI1381   NI        0.552982    0.035568    0.379761     0.004307
NI1382   NI        0.580543    0.035525    0.416645     0.004307
NI1383   NI        0.624479    0.058090    0.382985     0.004307
NI1384   NI        0.146324    0.127776    0.410456     0.004307
NI1385   NI        0.175502    0.088216    0.389665     0.004307
AU1386   AU        0.189272    0.128793    0.362676     0.007504
NI1387   NI        0.216575    0.084708    0.380498     0.004307
AU1388   AU        0.223365    0.119406    0.401252     0.007504
AU1389   AU        0.253309    0.078862    0.403241     0.007504
AU1390   AU        0.257604    0.113281    0.366085     0.007504
AU1391   AU        0.290249    0.077758    0.363164     0.007504
AU1392   AU        0.291643    0.110547    0.401641     0.007504
AU1393   AU        0.325551    0.074975    0.402166     0.007504
AU1394   AU        0.324777    0.107631    0.363167     0.007504
AU1395   AU        0.360564    0.072395    0.362105     0.007504
AU1396   AU        0.361116    0.107381    0.398102     0.007504
AU1397   AU        0.403968    0.077621    0.400647     0.007504
AU1398   AU        0.396986    0.105890    0.361261     0.007504
AU1399   AU        0.438154    0.075870    0.361831     0.007504
NI1400   NI        0.429928    0.115993    0.423860     0.004307
AU1401   AU        0.460317    0.089148    0.404716     0.007504
NI1402   NI        0.433544    0.125335    0.374381     0.004307
AU1403   AU        0.513604    0.065768    0.364688     0.007504
AU1404   AU        0.510619    0.108597    0.391824     0.007504
AU1405   AU        0.541792    0.074832    0.404571     0.007504
AU1406   AU        0.551630    0.104935    0.369964     0.007504
AU1407   AU        0.584672    0.070973    0.380217     0.007504
AU1408   AU        0.579672    0.114765    0.411016     0.007504
AU1409   AU        0.615744    0.081412    0.418523     0.007504
AU1410   AU        0.619969    0.112187    0.381188     0.007504
NI1411   NI        0.630985    0.074732    0.344653     0.004307
AU1412   AU        0.681195    0.127150    0.370536     0.007504
NI1413   NI        0.662304    0.059599    0.408788     0.004307
NI1414   NI        0.701579    0.084902    0.373316     0.004307
NI1415   NI        0.739516    0.089338    0.403076     0.004307
NI1416   NI        0.061794    0.198566    0.385250     0.004307
NI1417   NI        0.101668    0.149636    0.430695     0.004307
NI1418   NI        0.103002    0.174643    0.394637     0.004307
AU1419   AU        0.152178    0.161453    0.374396     0.007504
AU1420   AU        0.143171    0.178927    0.419745     0.007504
AU1421   AU        0.183062    0.150236    0.410025     0.007504
AU1422   AU        0.185586    0.190793    0.377603     0.007504
AU1423   AU        0.227107    0.158817    0.368124     0.007504
AU1424   AU        0.218363    0.183585    0.416375     0.007504
AU1425   AU        0.261920    0.152467    0.402669     0.007504
AU1426   AU        0.268279    0.191062    0.370786     0.007504
AU1427   AU        0.291302    0.145829    0.362930     0.007504
NI1428   NI        0.301224    0.190388    0.409275     0.004307
AU1429   AU        0.325313    0.143389    0.400004     0.007504
NI1430   NI        0.324323    0.178153    0.358209     0.004307
AU1431   AU        0.359607    0.140803    0.361490     0.007504
NI1432   NI        0.353096    0.178193    0.401349     0.004307
NI1433   NI        0.398292    0.143916    0.398187     0.004307
NI1434   NI        0.378331    0.192626    0.369151     0.004307
NI1435   NI        0.429454    0.162460    0.342847     0.004307
NI1436   NI        0.455499    0.188171    0.427314     0.004307
NI1437   NI        0.477562    0.129854    0.414243     0.004307
NI1438   NI        0.447918    0.168738    0.385996     0.004307
NI1439   NI        0.498049    0.173636    0.399974     0.004307
NI1440   NI        0.535298    0.218429    0.388638     0.004307
AU1441   AU        0.542653    0.147553    0.397895     0.007504
NI1442   NI        0.536986    0.166651    0.358956     0.004307
AU1443   AU        0.580764    0.143998    0.368112     0.007504
NI1444   NI        0.570736    0.184251    0.401890     0.004307
AU1445   AU        0.612729    0.152034    0.411809     0.007504
AU1446   AU        0.613240    0.184180    0.371243     0.007504
AU1447   AU        0.646965    0.153353    0.374788     0.007504
AU1448   AU        0.644269    0.189418    0.409410     0.007504
AU1449   AU        0.682709    0.159910    0.407902     0.007504
AU1450   AU        0.698578    0.173581    0.363718     0.007504
NI1451   NI        0.729953    0.141234    0.367419     0.004307
AU1452   AU        0.728721    0.174184    0.403769     0.007504
NI1453   NI        0.750293    0.128773    0.421568     0.004307
NI1454   NI        0.768944    0.170231    0.374473     0.004307
NI1455   NI        0.798107    0.202545    0.369764     0.004307
NI1456   NI        0.078934    0.228648    0.301725     0.004307
NI1457   NI        0.064912    0.245774    0.360267     0.004307
NI1458   NI        0.064465    0.259804    0.407257     0.004307
AU1459   AU        0.115969    0.223992    0.419913     0.007504
AU1460   AU        0.104180    0.259748    0.380384     0.007504
AU1461   AU        0.144627    0.212314    0.390914     0.007504
AU1462   AU        0.153858    0.255100    0.406098     0.007504
AU1463   AU        0.183750    0.217482    0.425984     0.007504
NI1464   NI        0.191460    0.261830    0.368082     0.004307
NI1465   NI        0.220656    0.219215    0.387823     0.004307
NI1466   NI        0.229107    0.264675    0.399731     0.004307
NI1467   NI        0.258698    0.211304    0.408899     0.004307
NI1468   NI        0.279227    0.238156    0.373893     0.004307
NI1469   NI        0.323872    0.224710    0.385850     0.004307
NI1470   NI        0.292522    0.266917    0.412760     0.004307
NI1471   NI        0.333931    0.239951    0.438800     0.004307
NI1472   NI        0.328165    0.267590    0.386920     0.004307
NI1473   NI        0.364852    0.216770    0.419497     0.004307
NI1474   NI        0.362703    0.269578    0.359488     0.004307
NI1475   NI        0.414667    0.215501    0.384748     0.004307
NI1476   NI        0.368275    0.236071    0.381154     0.004307
NI1477   NI        0.443983    0.202230    0.347011     0.004307
NI1478   NI        0.448890    0.236489    0.413792     0.004307
NI1479   NI        0.494517    0.215037    0.425744     0.004307
NI1480   NI        0.450339    0.250852    0.371754     0.004307
NI1481   NI        0.475788    0.216194    0.385465     0.004307
NI1482   NI        0.494765    0.253990    0.388449     0.004307
NI1483   NI        0.561775    0.226176    0.424391     0.004307
NI1484   NI        0.534330    0.264753    0.371875     0.004307
NI1485   NI        0.578335    0.229492    0.351468     0.004307
AU1486   AU        0.597268    0.266595    0.438073     0.007504
NI1487   NI        0.631621    0.241471    0.414486     0.004307
NI1488   NI        0.621821    0.226656    0.376734     0.004307
AU1489   AU        0.659765    0.206753    0.361953     0.007504
NI1490   NI        0.672993    0.255767    0.385512     0.004307
AU1491   AU        0.691887    0.209534    0.399428     0.007504
AU1492   AU        0.703092    0.235594    0.357566     0.007504
AU1493   AU        0.735521    0.196924    0.364299     0.007504
AU1494   AU        0.721950    0.249562    0.403141     0.007504
AU1495   AU        0.757858    0.214518    0.401270     0.007504
AU1496   AU        0.752743    0.241510    0.361930     0.007504
NI1497   NI        0.823652    0.238781    0.368934     0.004307
AU1498   AU        0.788914    0.244713    0.395545     0.007504
NI1499   NI        0.825593    0.267429    0.339162     0.004307
NI1500   NI        0.034912    0.306634    0.459045     0.004307
NI1501   NI        0.020754    0.334671    0.354116     0.004307
AU1502   AU        0.072024    0.304656    0.373520     0.007504
AU1503   AU        0.074892    0.345938    0.389315     0.007504
AU1504   AU        0.114666    0.306393    0.395086     0.007504
AU1505   AU        0.112672    0.337545    0.359914     0.007504
AU1506   AU        0.135395    0.291945    0.355114     0.007504
AU1507   AU        0.151807    0.332146    0.406152     0.007504
NI1508   NI        0.184776    0.292735    0.400188     0.004307
NI1509   NI        0.193281    0.336518    0.371121     0.004307
NI1510   NI        0.240737    0.297476    0.364424     0.004307
NI1511   NI        0.253582    0.348334    0.383186     0.004307
NI1512   NI        0.230107    0.306056    0.411661     0.004307
NI1513   NI        0.284296    0.370956    0.356528     0.004307
NI1514   NI        0.278566    0.291153    0.378976     0.004307
NI1515   NI        0.271321    0.317261    0.412432     0.004307
NI1516   NI        0.312563    0.311388    0.410601     0.004307
NI1517   NI        0.302555    0.332451    0.374311     0.004307
NI1518   NI        0.348193    0.324738    0.382203     0.004307
NI1519   NI        0.376544    0.343705    0.424339     0.004307
NI1520   NI        0.398684    0.255472    0.410321     0.004307
NI1521   NI        0.420534    0.326074    0.371253     0.004307
NI1522   NI        0.420537    0.281590    0.377232     0.004307
AU1523   AU        0.461099    0.324337    0.399427     0.007504
NI1524   NI        0.455455    0.276366    0.412542     0.004307
NI1525   NI        0.467097    0.335474    0.352070     0.004307
NI1526   NI        0.477742    0.292751    0.374187     0.004307
NI1527   NI        0.508763    0.323395    0.379708     0.004307
NI1528   NI        0.540395    0.313122    0.402587     0.004307
NI1529   NI        0.548359    0.333855    0.355947     0.004307
NI1530   NI        0.585965    0.305538    0.373445     0.004307
AU1531   AU        0.588375    0.338771    0.408098     0.007504
NI1532   NI        0.601610    0.265529    0.387672     0.004307
NI1533   NI        0.616411    0.334979    0.368416     0.004307
NI1534   NI        0.636642    0.286091    0.369044     0.004307
NI1535   NI        0.646426    0.343550    0.418467     0.004307
NI1536   NI        0.679585    0.304250    0.380146     0.004307
NI1537   NI        0.682774    0.327043    0.331821     0.004307
AU1538   AU        0.717938    0.277604    0.361245     0.007504
AU1539   AU        0.721851    0.317893    0.387754     0.007504
AU1540   AU        0.755331    0.281945    0.392490     0.007504
AU1541   AU        0.767738    0.321263    0.368375     0.007504
AU1542   AU        0.794179    0.281443    0.364336     0.007504
AU1543   AU        0.806073    0.317441    0.399092     0.007504
NI1544   NI        0.858075    0.316550    0.411013     0.004307
NI1545   NI        0.833812    0.313422    0.344098     0.004307
AU1546   AU        0.046233    0.434730    0.406562     0.007504
NI1547   NI        0.030117    0.391789    0.389145     0.004307
NI1548   NI        0.055459    0.388539    0.356235     0.004307
NI1549   NI        0.033415    0.323442    0.392332     0.004307
AU1550   AU        0.073143    0.393001    0.398597     0.007504
AU1551   AU        0.115889    0.363371    0.399631     0.007504
AU1552   AU        0.105227    0.386033    0.355582     0.007504
AU1553   AU        0.154472    0.363250    0.369290     0.007504
AU1554   AU        0.157767    0.393348    0.410470     0.007504
NI1555   NI        0.190412    0.360907    0.406420     0.004307
NI1556   NI        0.199116    0.387418    0.373152     0.004307
NI1557   NI        0.239270    0.388100    0.349484     0.004307
NI1558   NI        0.227878    0.406519    0.416074     0.004307
NI1559   NI        0.246988    0.374343    0.431442     0.004307
NI1560   NI        0.264364    0.398652    0.391109     0.004307
NI1561   NI        0.313963    0.396961    0.335288     0.004307
NI1562   NI        0.291398    0.361208    0.406980     0.004307
NI1563   NI        0.332348    0.350526    0.412689     0.004307
NI1564   NI        0.339082    0.367364    0.368043     0.004307
NI1565   NI        0.388467    0.353646    0.369108     0.004307
NI1566   NI        0.385989    0.408679    0.415754     0.004307
NI1567   NI        0.410523    0.380280    0.395413     0.004307
NI1568   NI        0.423677    0.412013    0.363411     0.004307
AU1569   AU        0.458444    0.369561    0.374821     0.007504
NI1570   NI        0.450308    0.410393    0.399400     0.004307
AU1571   AU        0.491685    0.362076    0.407561     0.007504
NI1572   NI        0.484173    0.401874    0.349490     0.004307
AU1573   AU        0.506685    0.364400    0.359279     0.007504
NI1574   NI        0.523963    0.403878    0.402289     0.004307
NI1575   NI        0.540536    0.359483    0.394962     0.004307
NI1576   NI        0.528103    0.402583    0.346696     0.004307
NI1577   NI        0.579814    0.375409    0.357582     0.004307
NI1578   NI        0.572254    0.383249    0.410936     0.004307
AU1579   AU        0.617002    0.376487    0.397114     0.007504
NI1580   NI        0.604264    0.422018    0.380867     0.004307
NI1581   NI        0.621664    0.371250    0.346445     0.004307
NI1582   NI        0.644065    0.410144    0.404289     0.004307
NI1583   NI        0.678777    0.351691    0.392135     0.004307
NI1584   NI        0.649008    0.401126    0.365112     0.004307
NI1585   NI        0.714408    0.354609    0.358024     0.004307
NI1586   NI        0.705445    0.394258    0.397589     0.004307
NI1587   NI        0.732730    0.358562    0.394305     0.004307
AU1588   AU        0.758302    0.399338    0.384499     0.007504
AU1589   AU        0.783239    0.361304    0.392781     0.007504
AU1590   AU        0.797992    0.401844    0.417620     0.007504
NI1591   NI        0.833111    0.353659    0.399483     0.004307
AU1592   AU        0.805555    0.397750    0.368053     0.007504
NI1593   NI        0.840073    0.399934    0.405428     0.004307
NI1594   NI        0.000714    0.410678    0.417322     0.004307
NI1595   NI        0.019687    0.500009    0.362377     0.004307
NI1596   NI        0.045269    0.478632    0.402482     0.004307
NI1597   NI        0.048444    0.470880    0.354654     0.004307
AU1598   AU        0.076788    0.430279    0.363416     0.007504
AU1599   AU        0.087615    0.461294    0.401267     0.007504
AU1600   AU        0.113432    0.415767    0.396287     0.007504
AU1601   AU        0.122621    0.459749    0.366389     0.007504
NI1602   NI        0.166689    0.422607    0.378922     0.004307
NI1603   NI        0.141233    0.463794    0.407932     0.004307
NI1604   NI        0.192444    0.457883    0.406083     0.004307
NI1605   NI        0.171938    0.462223    0.368701     0.004307
NI1606   NI        0.214568    0.436214    0.375266     0.004307
NI1607   NI        0.224415    0.483189    0.413738     0.004307
NI1608   NI        0.246255    0.446993    0.411679     0.004307
NI1609   NI        0.234306    0.473206    0.375978     0.004307
NI1610   NI        0.306699    0.398667    0.383544     0.004307
NI1611   NI        0.307021    0.428142    0.411425     0.004307
NI1612   NI        0.338517    0.456058    0.391837     0.004307
NI1613   NI        0.355361    0.494937    0.384325     0.004307
NI1614   NI        0.364149    0.415355    0.378187     0.004307
NI1615   NI        0.393506    0.481815    0.404801     0.004307
NI1616   NI        0.367576    0.448208    0.426919     0.004307
NI1617   NI        0.412179    0.473648    0.369530     0.004307
NI1618   NI        0.451526    0.454098    0.371757     0.004307
NI1619   NI        0.454442    0.470769    0.413190     0.004307
NI1620   NI        0.489146    0.430035    0.386365     0.004307
NI1621   NI        0.491207    0.471757    0.347572     0.004307
NI1622   NI        0.525189    0.447575    0.381594     0.004307
NI1623   NI        0.493320    0.473343    0.395031     0.004307
NI1624   NI        0.540754    0.493486    0.402602     0.004307
NI1625   NI        0.564778    0.460451    0.371154     0.004307
NI1626   NI        0.557132    0.415733    0.371787     0.004307
NI1627   NI        0.573256    0.497772    0.428162     0.004307
NI1628   NI        0.595631    0.459600    0.402539     0.004307
NI1629   NI        0.607345    0.489632    0.362837     0.004307
NI1630   NI        0.644907    0.446852    0.380858     0.004307
NI1631   NI        0.647338    0.493472    0.402734     0.004307
AU1632   AU        0.680200    0.434745    0.412573     0.007504
NI1633   NI        0.692214    0.467666    0.375727     0.004307
NI1634   NI        0.714193    0.432272    0.385373     0.004307
AU1635   AU        0.716990    0.467713    0.417413     0.007504
NI1636   NI        0.752263    0.446013    0.407807     0.004307
AU1637   AU        0.743670    0.471113    0.370586     0.007504
AU1638   AU        0.784538    0.438374    0.370241     0.007504
AU1639   AU        0.787949    0.477359    0.397758     0.007504
AU1640   AU        0.824387    0.439625    0.390834     0.007504
AU1641   AU        0.813307    0.474138    0.354078     0.007504
NI1642   NI        0.852352    0.403951    0.359486     0.004307
NI1643   NI        0.858099    0.477138    0.384331     0.004307
NI1644   NI        0.042003    0.524265    0.389712     0.004307
NI1645   NI        0.046974    0.564950    0.382232     0.004307
AU1646   AU        0.082885    0.504509    0.372577     0.007504
AU1647   AU        0.083116    0.544139    0.409822     0.007504
AU1648   AU        0.115745    0.504974    0.414695     0.007504
AU1649   AU        0.118095    0.540707    0.377093     0.007504
NI1650   NI        0.161195    0.526060    0.371577     0.004307
AU1651   AU        0.150546    0.542482    0.413350     0.007504
NI1652   NI        0.192645    0.517493    0.409892     0.004307
NI1653   NI        0.206853    0.554267    0.373840     0.004307
NI1654   NI        0.209181    0.509001    0.368164     0.004307
NI1655   NI        0.234603    0.570013    0.403931     0.004307
NI1656   NI        0.238594    0.526502    0.407691     0.004307
NI1657   NI        0.253555    0.534205    0.365449     0.004307
NI1658   NI        0.283215    0.492232    0.379604     0.004307
NI1659   NI        0.280991    0.523194    0.408457     0.004307
NI1660   NI        0.321579    0.560565    0.402630     0.004307
AU1661   AU        0.302619    0.535061    0.365244     0.007504
NI1662   NI        0.349729    0.534930    0.363267     0.004307
NI1663   NI        0.360336    0.578314    0.385804     0.004307
NI1664   NI        0.382027    0.544584    0.408714     0.004307
NI1665   NI        0.391716    0.541806    0.368478     0.004307
NI1666   NI        0.430727    0.512586    0.394328     0.004307
NI1667   NI        0.430151    0.554911    0.425334     0.004307
NI1668   NI        0.473185    0.509632    0.416922     0.004307
NI1669   NI        0.436430    0.548256    0.372596     0.004307
NI1670   NI        0.490755    0.511388    0.377082     0.004307
NI1671   NI        0.473494    0.551462    0.401471     0.004307
NI1672   NI        0.521263    0.542128    0.393046     0.004307
NI1673   NI        0.550442    0.533886    0.361062     0.004307
NI1674   NI        0.587378    0.517488    0.335636     0.004307
NI1675   NI        0.578538    0.530527    0.395189     0.004307
NI1676   NI        0.607090    0.500729    0.404586     0.004307
NI1677   NI        0.617814    0.538859    0.361288     0.004307
NI1678   NI        0.647231    0.501490    0.362387     0.004307
AU1679   AU        0.643349    0.537300    0.426444     0.007504
NI1680   NI        0.691377    0.503691    0.403911     0.004307
AU1681   AU        0.668113    0.534261    0.386017     0.007504
AU1682   AU        0.709975    0.505686    0.364136     0.007504
AU1683   AU        0.718504    0.552541    0.387219     0.007504
AU1684   AU        0.750819    0.507209    0.402199     0.007504
AU1685   AU        0.758511    0.541090    0.362605     0.007504
AU1686   AU        0.782078    0.504300    0.360696     0.007504
AU1687   AU        0.793476    0.535361    0.402900     0.007504
AU1688   AU        0.823954    0.510879    0.383303     0.007504
NI1689   NI        0.871316    0.498167    0.422433     0.004307
NI1690   NI        0.044346    0.590487    0.417729     0.004307
NI1691   NI        0.061564    0.658884    0.418860     0.004307
AU1692   AU        0.092788    0.577088    0.371896     0.007504
AU1693   AU        0.086874    0.617761    0.409080     0.007504
AU1694   AU        0.120232    0.582012    0.410587     0.007504
AU1695   AU        0.123955    0.615146    0.372540     0.007504
AU1696   AU        0.152482    0.576868    0.373486     0.007504
AU1697   AU        0.157235    0.612171    0.409164     0.007504
NI1698   NI        0.185673    0.573227    0.406316     0.004307
AU1699   AU        0.189726    0.611936    0.369689     0.007504
NI1700   NI        0.240256    0.563715    0.336857     0.004307
NI1701   NI        0.218512    0.614193    0.410436     0.004307
NI1702   NI        0.279487    0.615028    0.410271     0.004307
NI1703   NI        0.239434    0.604321    0.373342     0.004307
AU1704   AU        0.278663    0.576368    0.383956     0.007504
NI1705   NI        0.315212    0.577253    0.450318     0.004307
NI1706   NI        0.321137    0.584051    0.362768     0.004307
NI1707   NI        0.341732    0.636197    0.368493     0.004307
NI1708   NI        0.378967    0.609653    0.366872     0.004307
NI1709   NI        0.338808    0.609342    0.410002     0.004307
NI1710   NI        0.421504    0.607744    0.424665     0.004307
NI1711   NI        0.428062    0.596555    0.378448     0.004307
NI1712   NI        0.425883    0.574306    0.340958     0.004307
NI1713   NI        0.474469    0.602100    0.398816     0.004307
NI1714   NI        0.475314    0.583387    0.441967     0.004307
AU1715   AU        0.469401    0.604412    0.349213     0.007504
NI1716   NI        0.509529    0.630376    0.353284     0.004307
NI1717   NI        0.500167    0.634483    0.407874     0.004307
NI1718   NI        0.549974    0.583104    0.374671     0.004307
AU1719   AU        0.541372    0.624922    0.394508     0.007504
NI1720   NI        0.594499    0.572149    0.378185     0.004307
NI1721   NI        0.582310    0.612387    0.396241     0.004307
AU1722   AU        0.611006    0.578052    0.416399     0.007504
AU1723   AU        0.625821    0.613403    0.380454     0.007504
NI1724   NI        0.643920    0.572349    0.386748     0.004307
NI1725   NI        0.644938    0.610837    0.422412     0.004307
NI1726   NI        0.684560    0.575984    0.410025     0.004307
NI1727   NI        0.679109    0.613785    0.383309     0.004307
AU1728   AU        0.735201    0.577771    0.346679     0.007504
AU1729   AU        0.725863    0.603135    0.390779     0.007504
AU1730   AU        0.763952    0.574449    0.396980     0.007504
AU1731   AU        0.763479    0.616433    0.362856     0.007504
NI1732   NI        0.806285    0.590736    0.365321     0.004307
NI1733   NI        0.800064    0.613941    0.400729     0.004307
NI1734   NI        0.840456    0.607080    0.427577     0.004307
NI1735   NI        0.836009    0.625748    0.350063     0.004307
NI1736   NI        0.092864    0.653584    0.379681     0.004307
NI1737   NI        0.101443    0.717987    0.417065     0.004307
AU1738   AU        0.123901    0.651206    0.411630     0.007504
NI1739   NI        0.099801    0.686752    0.335307     0.004307
AU1740   AU        0.158884    0.650346    0.375135     0.007504
AU1741   AU        0.163665    0.684076    0.412313     0.007504
AU1742   AU        0.200220    0.654240    0.396767     0.007504
AU1743   AU        0.183044    0.692753    0.366627     0.007504
AU1744   AU        0.222950    0.676312    0.356210     0.007504
AU1745   AU        0.225524    0.689425    0.399738     0.007504
NI1746   NI        0.247564    0.649313    0.425109     0.004307
NI1747   NI        0.263292    0.698833    0.368281     0.004307
NI1748   NI        0.267060    0.641049    0.378023     0.004307
NI1749   NI        0.274272    0.683844    0.409504     0.004307
NI1750   NI        0.347269    0.644217    0.430790     0.004307
NI1751   NI        0.337740    0.673424    0.397867     0.004307
NI1752   NI        0.377435    0.641059    0.398872     0.004307
NI1753   NI        0.376637    0.694397    0.408054     0.004307
NI1754   NI        0.435676    0.650574    0.402178     0.004307
NI1755   NI        0.384645    0.684538    0.365479     0.004307
NI1756   NI        0.410551    0.653400    0.364636     0.004307
NI1757   NI        0.424729    0.698643    0.390531     0.004307
NI1758   NI        0.464880    0.638614    0.374764     0.004307
NI1759   NI        0.494024    0.671113    0.355712     0.004307
NI1760   NI        0.547334    0.612885    0.336048     0.004307
NI1761   NI        0.508068    0.685937    0.392128     0.004307
NI1762   NI        0.548393    0.666811    0.400294     0.004307
AU1763   AU        0.558775    0.686580    0.363691     0.007504
AU1764   AU        0.592995    0.651958    0.374891     0.007504
AU1765   AU        0.588078    0.690591    0.402421     0.007504
AU1766   AU        0.625325    0.655423    0.410266     0.007504
AU1767   AU        0.624907    0.691375    0.371661     0.007504
AU1768   AU        0.655465    0.654475    0.373456     0.007504
AU1769   AU        0.660043    0.694821    0.405670     0.007504
AU1770   AU        0.698232    0.657568    0.405100     0.007504
AU1771   AU        0.690375    0.691084    0.365946     0.007504
AU1772   AU        0.725301    0.651882    0.346761     0.007504
AU1773   AU        0.727400    0.700456    0.396221     0.007504
AU1774   AU        0.745393    0.652851    0.392098     0.007504
NI1775   NI        0.749185    0.684036    0.360757     0.004307
NI1776   NI        0.820275    0.670779    0.401612     0.004307
NI1777   NI        0.792654    0.652770    0.377653     0.004307
AU1778   AU        0.129071    0.689531    0.381342     0.007504
NI1779   NI        0.145224    0.730111    0.356935     0.004307
NI1780   NI        0.107180    0.760240    0.455041     0.004307
AU1781   AU        0.191394    0.726706    0.402338     0.007504
NI1782   NI        0.154689    0.751532    0.393204     0.004307
AU1783   AU        0.221823    0.726337    0.359789     0.007504
NI1784   NI        0.211801    0.758049    0.422546     0.004307
AU1785   AU        0.253743    0.730720    0.397193     0.007504
AU1786   AU        0.256881    0.762554    0.356381     0.007504
AU1787   AU        0.298268    0.739014    0.367305     0.007504
AU1788   AU        0.285297    0.769736    0.397720     0.007504
NI1789   NI        0.329412    0.744743    0.404163     0.004307
AU1790   AU        0.341146    0.766126    0.367750     0.007504
NI1791   NI        0.338111    0.711960    0.371673     0.004307
AU1792   AU        0.374676    0.763167    0.405686     0.007504
NI1793   NI        0.410633    0.707945    0.430940     0.004307
AU1794   AU        0.381813    0.731404    0.371094     0.007504
NI1795   NI        0.436188    0.727121    0.360531     0.004307
AU1796   AU        0.420946    0.753688    0.390295     0.007504
AU1797   AU        0.469492    0.731056    0.396140     0.007504
AU1798   AU        0.485251    0.771552    0.362100     0.007504
NI1799   NI        0.508788    0.719507    0.361559     0.004307
AU1800   AU        0.510997    0.758054    0.394893     0.007504
AU1801   AU        0.549262    0.721382    0.397364     0.007504
AU1802   AU        0.548386    0.757278    0.360792     0.007504
AU1803   AU        0.590159    0.727542    0.367350     0.007504
AU1804   AU        0.584096    0.757817    0.399353     0.007504
AU1805   AU        0.625397    0.730668    0.402808     0.007504
AU1806   AU        0.620662    0.761015    0.365159     0.007504
AU1807   AU        0.659930    0.730148    0.367897     0.007504
AU1808   AU        0.657961    0.770433    0.396186     0.007504
AU1809   AU        0.693847    0.734426    0.403972     0.007504
NI1810   NI        0.708614    0.732641    0.363248     0.004307
NI1811   NI        0.754267    0.731539    0.375356     0.004307
NI1812   NI        0.727846    0.766816    0.383025     0.004307
NI1813   NI        0.784183    0.687684    0.449621     0.004307
NI1814   NI        0.191252    0.801344    0.349794     0.004307
NI1815   NI        0.219044    0.767515    0.383921     0.004307
NI1816   NI        0.269572    0.809819    0.407403     0.004307
NI1817   NI        0.248749    0.793304    0.327887     0.004307
AU1818   AU        0.296158    0.790435    0.360465     0.007504
NI1819   NI        0.312583    0.827471    0.428528     0.004307
AU1820   AU        0.329151    0.789091    0.413053     0.007504
AU1821   AU        0.336394    0.821341    0.373574     0.007504
AU1822   AU        0.390428    0.785303    0.367820     0.007504
AU1823   AU        0.371045    0.812322    0.404116     0.007504
AU1824   AU        0.413973    0.795630    0.413148     0.007504
AU1825   AU        0.405743    0.834217    0.375042     0.007504
AU1826   AU        0.438455    0.795269    0.368262     0.007504
AU1827   AU        0.443552    0.825900    0.409558     0.007504
AU1828   AU        0.464200    0.778654    0.407018     0.007504
AU1829   AU        0.484914    0.816178    0.380896     0.007504
AU1830   AU        0.522772    0.793107    0.357851     0.007504
AU1831   AU        0.526993    0.823513    0.396857     0.007504
AU1832   AU        0.551346    0.784935    0.396193     0.007504
NI1833   NI        0.564657    0.823734    0.374846     0.004307
NI1834   NI        0.586351    0.788434    0.356739     0.004307
NI1835   NI        0.576250    0.833422    0.418326     0.004307
AU1836   AU        0.613199    0.796009    0.399138     0.007504
NI1837   NI        0.640625    0.804610    0.357764     0.004307
NI1838   NI        0.674926    0.814994    0.383984     0.004307
NI1839   NI        0.724592    0.808637    0.373216     0.004307
NI1840   NI        0.425638    0.868546    0.397979     0.004307
NI1841   NI        0.462490    0.836036    0.344116     0.004307
NI1842   NI        0.470171    0.864754    0.380466     0.004307
NI1843   NI        0.249566    0.046246    0.443718     0.004307
NI1844   NI        0.293842    0.047227    0.464744     0.004307
NI1845   NI        0.352499    0.020843    0.434559     0.004307
NI1846   NI        0.324531    0.010200    0.399102     0.004307
AU1847   AU        0.362683    0.042411    0.475624     0.007504
NI1848   NI        0.396638    0.009193    0.473649     0.004307
AU1849   AU        0.401084    0.042217    0.437494     0.007504
NI1850   NI        0.417428    0.004287    0.412391     0.004307
AU1851   AU        0.432743    0.042683    0.478210     0.007504
NI1852   NI        0.445335    0.002508    0.498803     0.004307
NI1853   NI        0.485326    0.050066    0.406324     0.004307
NI1854   NI        0.495343    0.001462    0.431129     0.004307
NI1855   NI        0.477291    0.036988    0.445776     0.004307
NI1856   NI        0.537025    0.041874    0.432474     0.004307
NI1857   NI        0.605269    0.021572    0.463105     0.004307
NI1858   NI        0.633516    0.031848    0.424495     0.004307
NI1859   NI        0.102964    0.139707    0.472809     0.004307
NI1860   NI        0.247412    0.045801    0.496556     0.004307
NI1861   NI        0.184768    0.111949    0.437417     0.004307
NI1862   NI        0.218272    0.085991    0.435994     0.004307
NI1863   NI        0.217708    0.112467    0.471111     0.004307
AU1864   AU        0.254247    0.081901    0.470883     0.007504
AU1865   AU        0.257157    0.116218    0.438023     0.007504
AU1866   AU        0.293018    0.079364    0.440009     0.007504
AU1867   AU        0.295619    0.112563    0.476307     0.007504
AU1868   AU        0.329692    0.077310    0.472987     0.007504
AU1869   AU        0.329500    0.110038    0.437077     0.007504
AU1870   AU        0.366814    0.075795    0.437407     0.007504
AU1871   AU        0.358936    0.110790    0.475019     0.007504
AU1872   AU        0.397227    0.078028    0.475807     0.007504
AU1873   AU        0.388593    0.114812    0.437042     0.007504
AU1874   AU        0.437411    0.074046    0.440838     0.007504
AU1875   AU        0.429194    0.107721    0.475294     0.007504
AU1876   AU        0.469873    0.076131    0.478255     0.007504
NI1877   NI        0.476374    0.112445    0.456733     0.004307
AU1878   AU        0.500635    0.082518    0.435059     0.007504
AU1879   AU        0.520097    0.113104    0.489636     0.007504
AU1880   AU        0.532839    0.075246    0.473372     0.007504
AU1881   AU        0.536382    0.115387    0.437690     0.007504
AU1882   AU        0.571536    0.078194    0.442309     0.007504
AU1883   AU        0.569839    0.109727    0.472452     0.007504
NI1884   NI        0.627957    0.063665    0.456610     0.004307
AU1885   AU        0.612524    0.122773    0.450109     0.007504
NI1886   NI        0.651859    0.099128    0.455093     0.004307
AU1887   AU        0.651411    0.140059    0.475824     0.007504
NI1888   NI        0.699241    0.123138    0.488999     0.004307
NI1889   NI        0.700468    0.095889    0.437231     0.004307
NI1890   NI        0.746349    0.143072    0.565132     0.004307
NI1891   NI        0.073817    0.203478    0.486146     0.004307
NI1892   NI        0.104724    0.173549    0.501632     0.004307
NI1893   NI        0.102437    0.191506    0.453930     0.004307
NI1894   NI        0.139708    0.149096    0.452879     0.004307
AU1895   AU        0.143805    0.176454    0.485676     0.007504
NI1896   NI        0.181135    0.139882    0.473703     0.004307
AU1897   AU        0.180849    0.178114    0.450025     0.007504
AU1898   AU        0.221039    0.146497    0.443597     0.007504
NI1899   NI        0.219531    0.188628    0.465497     0.004307
AU1900   AU        0.262291    0.142383    0.478714     0.007504
AU1901   AU        0.257296    0.182250    0.444226     0.007504
AU1902   AU        0.295530    0.149752    0.438987     0.007504
AU1903   AU        0.293140    0.179886    0.479962     0.007504
AU1904   AU        0.328476    0.146239    0.477910     0.007504
NI1905   NI        0.343281    0.189475    0.449409     0.004307
NI1906   NI        0.358211    0.149273    0.435279     0.004307
NI1907   NI        0.372890    0.197815    0.494579     0.004307
NI1908   NI        0.393539    0.138142    0.474579     0.004307
AU1909   AU        0.410320    0.214666    0.433334     0.007504
NI1910   NI        0.415932    0.173974    0.424608     0.004307
NI1911   NI        0.409409    0.182565    0.471810     0.004307
NI1912   NI        0.466309    0.149709    0.492330     0.004307
NI1913   NI        0.444999    0.149348    0.449932     0.004307
NI1914   NI        0.497882    0.154027    0.454237     0.004307
NI1915   NI        0.495576    0.187240    0.479563     0.004307
AU1916   AU        0.539395    0.151471    0.476144     0.007504
AU1917   AU        0.532158    0.180095    0.433873     0.007504
AU1918   AU        0.574394    0.150926    0.441995     0.007504
AU1919   AU        0.567861    0.190353    0.474710     0.007504
AU1920   AU        0.615094    0.172743    0.463664     0.007504
NI1921   NI        0.599276    0.200951    0.431532     0.004307
AU1922   AU        0.650412    0.120380    0.415170     0.007504
AU1923   AU        0.656817    0.190811    0.487982     0.007504
AU1924   AU        0.712721    0.148241    0.445441     0.007504
AU1925   AU        0.682798    0.196946    0.444166     0.007504
NI1926   NI        0.705308    0.122602    0.404329     0.004307
AU1927   AU        0.726483    0.183765    0.478336     0.007504
NI1928   NI        0.754052    0.145764    0.476837     0.004307
NI1929   NI        0.757313    0.179411    0.437715     0.004307
NI1930   NI        0.769038    0.190386    0.498863     0.004307
NI1931   NI        0.037907    0.271533    0.497077     0.004307
NI1932   NI        0.062189    0.228108    0.450393     0.004307
NI1933   NI        0.073097    0.244674    0.502924     0.004307
AU1934   AU        0.106710    0.239500    0.466310     0.007504
AU1935   AU        0.109101    0.270554    0.426138     0.007504
AU1936   AU        0.147681    0.212623    0.458502     0.007504
AU1937   AU        0.156422    0.260625    0.476475     0.007504
AU1938   AU        0.194340    0.227706    0.474270     0.007504
AU1939   AU        0.193839    0.265069    0.439830     0.007504
AU1940   AU        0.230666    0.229918    0.439278     0.007504
AU1941   AU        0.230620    0.260271    0.478873     0.007504
AU1942   AU        0.257052    0.217881    0.480267     0.007504
NI1943   NI        0.256640    0.264228    0.440280     0.004307
NI1944   NI        0.283446    0.230258    0.445511     0.004307
AU1945   AU        0.293042    0.256735    0.480879     0.007504
NI1946   NI        0.327080    0.221124    0.481598     0.004307
NI1947   NI        0.330523    0.282216    0.441856     0.004307
NI1948   NI        0.380567    0.235066    0.457535     0.004307
NI1949   NI        0.342603    0.268529    0.490333     0.004307
NI1950   NI        0.416755    0.224588    0.483774     0.004307
NI1951   NI        0.417760    0.257710    0.449343     0.004307
NI1952   NI        0.451517    0.229793    0.455679     0.004307
AU1953   AU        0.443627    0.262538    0.497466     0.007504
NI1954   NI        0.450045    0.187147    0.470665     0.004307
NI1955   NI        0.486534    0.261425    0.435746     0.004307
NI1956   NI        0.526402    0.248221    0.423614     0.004307
NI1957   NI        0.531775    0.287612    0.458966     0.004307
NI1958   NI        0.540666    0.245702    0.464259     0.004307
NI1959   NI        0.564008    0.270687    0.403197     0.004307
NI1960   NI        0.579392    0.230735    0.468387     0.004307
NI1961   NI        0.606954    0.272509    0.483927     0.004307
NI1962   NI        0.616631    0.217217    0.483818     0.004307
NI1963   NI        0.639359    0.290689    0.418556     0.004307
NI1964   NI        0.637454    0.247713    0.460051     0.004307
NI1965   NI        0.672964    0.267995    0.482003     0.004307
AU1966   AU        0.696076    0.226512    0.480898     0.007504
AU1967   AU        0.681493    0.244044    0.435819     0.007504
AU1968   AU        0.723082    0.215568    0.439168     0.007504
AU1969   AU        0.719918    0.259737    0.456802     0.007504
AU1970   AU        0.755853    0.229246    0.478931     0.007504
AU1971   AU        0.759743    0.249189    0.434605     0.007504
NI1972   NI        0.794034    0.207774    0.429330     0.004307
AU1973   AU        0.799388    0.247245    0.463060     0.007504
NI1974   NI        0.829500    0.282371    0.434482     0.004307
AU1975   AU        0.071366    0.273756    0.456223     0.007504
NI1976   NI        0.043430    0.347456    0.428434     0.004307
AU1977   AU        0.071985    0.308861    0.423745     0.007504
AU1978   AU        0.078459    0.323420    0.471860     0.007504
AU1979   AU        0.116324    0.289320    0.472507     0.007504
AU1980   AU        0.113034    0.323269    0.436427     0.007504
AU1981   AU        0.148935    0.289295    0.433684     0.007504
AU1982   AU        0.153276    0.317928    0.476468     0.007504
AU1983   AU        0.197152    0.294442    0.481372     0.007504
AU1984   AU        0.188379    0.319218    0.438141     0.007504
NI1985   NI        0.230029    0.295390    0.453107     0.004307
NI1986   NI        0.232019    0.337561    0.497232     0.004307
AU1987   AU        0.266676    0.295793    0.498339     0.007504
NI1988   NI        0.265382    0.334975    0.470946     0.004307
NI1989   NI        0.287907    0.298315    0.450023     0.004307
NI1990   NI        0.301863    0.332305    0.503516     0.004307
NI1991   NI        0.311520    0.298152    0.482971     0.004307
NI1992   NI        0.340180    0.323453    0.443566     0.004307
NI1993   NI        0.382183    0.290138    0.445278     0.004307
AU1994   AU        0.376552    0.307386    0.496229     0.007504
AU1995   AU        0.420128    0.297895    0.475920     0.007504
NI1996   NI        0.421109    0.302480    0.424708     0.004307
NI1997   NI        0.453233    0.285499    0.455315     0.004307
AU1998   AU        0.446835    0.345366    0.469521     0.007504
AU1999   AU        0.491401    0.276519    0.487262     0.007504
NI2000   NI        0.482229    0.331537    0.437697     0.004307
NI2001   NI        0.502826    0.291224    0.411373     0.004307
NI2002   NI        0.502233    0.329849    0.483864     0.004307
NI2003   NI        0.573476    0.298086    0.482773     0.004307
NI2004   NI        0.533603    0.345163    0.439611     0.004307
AU2005   AU        0.566944    0.305557    0.440806     0.007504
AU2006   AU        0.574060    0.343121    0.475458     0.007504
NI2007   NI        0.609392    0.309581    0.452187     0.004307
AU2008   AU        0.606229    0.357583    0.442779     0.007504
NI2009   NI        0.670296    0.316089    0.461541     0.004307
AU2010   AU        0.645246    0.351148    0.473209     0.007504
NI2011   NI        0.717235    0.300179    0.478286     0.004307
NI2012   NI        0.693853    0.317646    0.424227     0.004307
AU2013   AU        0.736033    0.290946    0.430792     0.007504
NI2014   NI        0.760784    0.325918    0.481203     0.004307
AU2015   AU        0.761965    0.279896    0.473108     0.007504
AU2016   AU        0.761427    0.325133    0.418279     0.007504
AU2017   AU        0.786915    0.282905    0.429476     0.007504
AU2018   AU        0.795919    0.333393    0.504793     0.007504
AU2019   AU        0.806740    0.298853    0.472331     0.007504
NI2020   NI        0.845227    0.319684    0.449730     0.004307
NI2021   NI        0.014129    0.353147    0.508775     0.004307
NI2022   NI        0.007900    0.394814    0.474135     0.004307
AU2023   AU        0.043943    0.357110    0.474638     0.007504
AU2024   AU        0.041927    0.395874    0.441334     0.007504
AU2025   AU        0.083012    0.362239    0.436844     0.007504
AU2026   AU        0.079919    0.391328    0.475995     0.007504
AU2027   AU        0.114008    0.353723    0.476959     0.007504
AU2028   AU        0.120223    0.393634    0.444375     0.007504
AU2029   AU        0.158363    0.359516    0.446230     0.007504
NI2030   NI        0.149669    0.397017    0.476060     0.004307
NI2031   NI        0.193476    0.342246    0.473297     0.004307
NI2032   NI        0.202150    0.388586    0.453445     0.004307
NI2033   NI        0.233018    0.336651    0.444073     0.004307
NI2034   NI        0.230819    0.423910    0.467478     0.004307
NI2035   NI        0.275130    0.362094    0.513443     0.004307
NI2036   NI        0.266147    0.415939    0.442410     0.004307
NI2037   NI        0.301005    0.348328    0.448863     0.004307
NI2038   NI        0.274921    0.391139    0.477489     0.004307
NI2039   NI        0.335331    0.349494    0.483669     0.004307
NI2040   NI        0.337069    0.394749    0.410977     0.004307
NI2041   NI        0.358740    0.382517    0.446767     0.004307
NI2042   NI        0.375965    0.396202    0.485532     0.004307
NI2043   NI        0.388719    0.336625    0.464846     0.004307
NI2044   NI        0.430988    0.408382    0.438119     0.004307
AU2045   AU        0.448756    0.368578    0.426449     0.007504
NI2046   NI        0.413707    0.377313    0.467883     0.004307
AU2047   AU        0.457210    0.393439    0.472088     0.007504
NI2048   NI        0.486614    0.404727    0.430392     0.004307
NI2049   NI        0.486986    0.364276    0.461731     0.004307
AU2050   AU        0.501823    0.413238    0.480781     0.007504
NI2051   NI        0.529833    0.368835    0.481320     0.004307
NI2052   NI        0.533928    0.414165    0.444026     0.004307
AU2053   AU        0.565522    0.381457    0.457764     0.007504
AU2054   AU        0.585691    0.420994    0.483728     0.007504
AU2055   AU        0.612645    0.380152    0.479519     0.007504
AU2056   AU        0.603826    0.407030    0.435836     0.007504
AU2057   AU        0.646391    0.389266    0.441186     0.007504
AU2058   AU        0.666323    0.388407    0.482348     0.007504
NI2059   NI        0.700425    0.348057    0.472730     0.004307
NI2060   NI        0.685073    0.369129    0.440463     0.004307
NI2061   NI        0.726403    0.346059    0.433548     0.004307
NI2062   NI        0.727776    0.387330    0.471283     0.004307
AU2063   AU        0.781988    0.368864    0.477525     0.007504
NI2064   NI        0.758932    0.379487    0.431014     0.004307
AU2065   AU        0.800612    0.344882    0.440041     0.007504
AU2066   AU        0.800134    0.408965    0.464765     0.007504
AU2067   AU        0.827898    0.369845    0.502479     0.007504
NI2068   NI        0.826231    0.379224    0.451999     0.004307
NI2069   NI        0.887133    0.381184    0.393704     0.004307
NI2070   NI        0.863132    0.392934    0.437944     0.004307
NI2071   NI        0.017793    0.443682    0.441709     0.004307
NI2072   NI        0.018718    0.471091    0.479305     0.004307
AU2073   AU        0.048688    0.431783    0.476343     0.007504
AU2074   AU        0.061277    0.468013    0.441557     0.007504
AU2075   AU        0.084996    0.424812    0.436160     0.007504
AU2076   AU        0.072198    0.478640    0.488481     0.007504
AU2077   AU        0.112866    0.429435    0.478925     0.007504
AU2078   AU        0.110969    0.468618    0.448347     0.007504
NI2079   NI        0.151207    0.433476    0.440924     0.004307
AU2080   AU        0.146838    0.467523    0.479604     0.007504
NI2081   NI        0.184110    0.432065    0.484325     0.004307
NI2082   NI        0.178640    0.472084    0.443698     0.004307
NI2083   NI        0.201633    0.431288    0.438413     0.004307
NI2084   NI        0.210501    0.465677    0.478165     0.004307
NI2085   NI        0.270501    0.434180    0.502960     0.004307
NI2086   NI        0.251065    0.463147    0.461827     0.004307
NI2087   NI        0.301335    0.393267    0.435324     0.004307
NI2088   NI        0.306893    0.450562    0.470031     0.004307
NI2089   NI        0.310619    0.423686    0.502115     0.004307
NI2090   NI        0.336771    0.477798    0.436195     0.004307
NI2091   NI        0.342250    0.424624    0.466902     0.004307
NI2092   NI        0.349944    0.477190    0.479811     0.004307
NI2093   NI        0.391010    0.427264    0.453279     0.004307
NI2094   NI        0.416129    0.445183    0.403015     0.004307
NI2095   NI        0.463391    0.436108    0.443695     0.004307
NI2096   NI        0.421970    0.454162    0.473091     0.004307
AU2097   AU        0.463065    0.441883    0.490286     0.007504
AU2098   AU        0.457732    0.481564    0.457424     0.007504
NI2099   NI        0.503054    0.444621    0.424251     0.004307
AU2100   AU        0.502961    0.461575    0.468516     0.007504
AU2101   AU        0.542411    0.444188    0.490187     0.007504
NI2102   NI        0.555269    0.459645    0.445372     0.004307
NI2103   NI        0.565146    0.434211    0.410832     0.004307
AU2104   AU        0.577121    0.473451    0.496074     0.007504
AU2105   AU        0.633139    0.425477    0.470523     0.007504
AU2106   AU        0.601163    0.459813    0.452457     0.007504
AU2107   AU        0.635230    0.445622    0.429331     0.007504
AU2108   AU        0.649910    0.468749    0.476178     0.007504
AU2109   AU        0.674682    0.428689    0.455300     0.007504
AU2110   AU        0.675541    0.476978    0.434620     0.007504
NI2111   NI        0.719221    0.418147    0.434039     0.004307
NI2112   NI        0.724858    0.463044    0.462034     0.004307
AU2113   AU        0.758778    0.423332    0.465480     0.007504
AU2114   AU        0.762643    0.479986    0.443853     0.007504
AU2115   AU        0.788793    0.444700    0.428977     0.007504
AU2116   AU        0.801742    0.458297    0.468546     0.007504
AU2117   AU        0.835816    0.430460    0.490551     0.007504
AU2118   AU        0.827291    0.474236    0.430289     0.007504
AU2119   AU        0.830866    0.429303    0.440590     0.007504
NI2120   NI        0.855319    0.472781    0.518866     0.004307
NI2121   NI        0.029564    0.506138    0.435642     0.004307
NI2122   NI        0.044496    0.512762    0.478052     0.004307
NI2123   NI        0.040543    0.547662    0.431797     0.004307
AU2124   AU        0.077649    0.513059    0.446929     0.007504
AU2125   AU        0.081615    0.545051    0.482940     0.007504
AU2126   AU        0.113034    0.506934    0.483867     0.007504
AU2127   AU        0.116864    0.544019    0.448324     0.007504
AU2128   AU        0.149242    0.507425    0.451458     0.007504
AU2129   AU        0.152086    0.541654    0.484273     0.007504
AU2130   AU        0.187484    0.504128    0.483728     0.007504
AU2131   AU        0.189037    0.538951    0.447719     0.007504
NI2132   NI        0.220422    0.504673    0.448763     0.004307
NI2133   NI        0.215570    0.539874    0.489462     0.004307
NI2134   NI        0.262557    0.500334    0.442418     0.004307
NI2135   NI        0.241160    0.545273    0.448899     0.004307
NI2136   NI        0.292073    0.462804    0.434138     0.004307
NI2137   NI        0.286856    0.539469    0.470122     0.004307
NI2138   NI        0.292246    0.494867    0.476771     0.004307
NI2139   NI        0.308328    0.538231    0.433934     0.004307
NI2140   NI        0.336654    0.519180    0.412399     0.004307
NI2141   NI        0.329803    0.517942    0.467029     0.004307
NI2142   NI        0.396050    0.489496    0.460257     0.004307
NI2143   NI        0.387187    0.546091    0.470949     0.004307
NI2144   NI        0.425628    0.517278    0.440523     0.004307
NI2145   NI        0.424203    0.531566    0.495322     0.004307
AU2146   AU        0.496158    0.512899    0.474073     0.007504
NI2147   NI        0.463783    0.535214    0.457592     0.004307
NI2148   NI        0.510657    0.488123    0.432759     0.004307
NI2149   NI        0.499560    0.542519    0.436865     0.004307
AU2150   AU        0.536423    0.494455    0.477048     0.007504
NI2151   NI        0.542733    0.527326    0.432841     0.004307
NI2152   NI        0.576280    0.511153    0.468628     0.004307
AU2153   AU        0.541683    0.537804    0.478670     0.007504
AU2154   AU        0.612672    0.499561    0.494127     0.007504
AU2155   AU        0.600056    0.537764    0.445608     0.007504
AU2156   AU        0.632205    0.498979    0.449669     0.007504
AU2157   AU        0.641207    0.538823    0.478718     0.007504
AU2158   AU        0.680970    0.508913    0.471199     0.007504
AU2159   AU        0.696738    0.540268    0.430772     0.007504
NI2160   NI        0.718464    0.501706    0.447958     0.004307
AU2161   AU        0.720110    0.544629    0.475270     0.007504
AU2162   AU        0.759034    0.516796    0.479523     0.007504
AU2163   AU        0.757646    0.541659    0.437181     0.007504
AU2164   AU        0.799682    0.512339    0.449548     0.007504
AU2165   AU        0.795519    0.552395    0.480083     0.007504
AU2166   AU        0.828764    0.493380    0.486268     0.007504
NI2167   NI        0.831328    0.539757    0.422580     0.004307
NI2168   NI        0.845555    0.518407    0.455041     0.004307
NI2169   NI        0.046736    0.576878    0.479983     0.004307
NI2170   NI        0.050845    0.622479    0.447294     0.004307
AU2171   AU        0.083433    0.581135    0.448233     0.007504
AU2172   AU        0.088252    0.614873    0.484919     0.007504
AU2173   AU        0.118901    0.579488    0.486136     0.007504
AU2174   AU        0.121197    0.612906    0.446831     0.007504
AU2175   AU        0.154969    0.578109    0.446886     0.007504
AU2176   AU        0.150557    0.615805    0.487235     0.007504
AU2177   AU        0.186288    0.578367    0.484369     0.007504
NI2178   NI        0.189613    0.615666    0.455905     0.004307
NI2179   NI        0.221810    0.583265    0.453075     0.004307
NI2180   NI        0.232928    0.619478    0.480982     0.004307
NI2181   NI        0.241954    0.579045    0.488440     0.004307
NI2182   NI        0.275354    0.597224    0.464746     0.004307
NI2183   NI        0.278250    0.570027    0.428415     0.004307
NI2184   NI        0.308419    0.614877    0.484362     0.004307
NI2185   NI        0.337634    0.582721    0.486221     0.004307
NI2186   NI        0.352960    0.549106    0.448883     0.004307
NI2187   NI        0.378599    0.580775    0.426514     0.004307
NI2188   NI        0.351941    0.606488    0.454397     0.004307
NI2189   NI        0.382538    0.589148    0.493836     0.004307
NI2190   NI        0.403598    0.614362    0.460715     0.004307
NI2191   NI        0.436903    0.564599    0.469754     0.004307
NI2192   NI        0.448615    0.611229    0.463012     0.004307
NI2193   NI        0.471686    0.592226    0.500502     0.004307
NI2194   NI        0.466727    0.636802    0.430756     0.004307
AU2195   AU        0.514250    0.582680    0.408679     0.007504
NI2196   NI        0.499938    0.612797    0.470215     0.004307
NI2197   NI        0.527683    0.578072    0.455665     0.004307
NI2198   NI        0.542863    0.633255    0.437049     0.004307
NI2199   NI        0.552909    0.593221    0.425369     0.004307
NI2200   NI        0.567833    0.579389    0.469703     0.004307
NI2201   NI        0.610101    0.572579    0.465865     0.004307
NI2202   NI        0.591800    0.614407    0.438647     0.004307
NI2203   NI        0.647875    0.577747    0.449196     0.004307
NI2204   NI        0.650636    0.615904    0.470334     0.004307
AU2205   AU        0.686613    0.581057    0.469737     0.007504
AU2206   AU        0.690956    0.617301    0.434280     0.007504
AU2207   AU        0.724287    0.578661    0.432703     0.007504
AU2208   AU        0.727448    0.610897    0.469274     0.007504
AU2209   AU        0.756703    0.579124    0.472066     0.007504
AU2210   AU        0.778364    0.614889    0.444664     0.007504
AU2211   AU        0.800866    0.572254    0.435277     0.007504
AU2212   AU        0.801780    0.598355    0.485186     0.007504
NI2213   NI        0.836578    0.562402    0.475655     0.004307
NI2214   NI        0.864143    0.569109    0.417523     0.004307
AU2215   AU        0.091343    0.652395    0.449213     0.007504
NI2216   NI        0.082987    0.703315    0.465994     0.004307
AU2217   AU        0.124131    0.652381    0.478147     0.007504
AU2218   AU        0.124041    0.688176    0.443685     0.007504
AU2219   AU        0.158019    0.651511    0.442295     0.007504
AU2220   AU        0.151119    0.691594    0.478184     0.007504
AU2221   AU        0.179423    0.655357    0.481010     0.007504
AU2222   AU        0.185305    0.695036    0.448764     0.007504
AU2223   AU        0.217834    0.655879    0.458263     0.007504
AU2224   AU        0.213300    0.696211    0.482411     0.007504
NI2225   NI        0.263128    0.645250    0.493975     0.004307
AU2226   AU        0.258013    0.683028    0.461606     0.007504
NI2227   NI        0.307528    0.650587    0.418867     0.004307
NI2228   NI        0.299748    0.679748    0.496129     0.004307
NI2229   NI        0.344975    0.643641    0.478428     0.004307
NI2230   NI        0.310828    0.687789    0.452705     0.004307
NI2231   NI        0.398032    0.670180    0.441304     0.004307
NI2232   NI        0.353526    0.680071    0.453541     0.004307
AU2233   AU        0.402715    0.643464    0.496918     0.007504
NI2234   NI        0.376452    0.715929    0.458759     0.004307
NI2235   NI        0.435778    0.653442    0.451546     0.004307
NI2236   NI        0.435791    0.673038    0.506772     0.004307
NI2237   NI        0.477964    0.656882    0.466004     0.004307
NI2238   NI        0.448326    0.691435    0.424165     0.004307
NI2239   NI        0.511125    0.667194    0.432085     0.004307
NI2240   NI        0.508891    0.691063    0.469758     0.004307
NI2241   NI        0.539450    0.625653    0.480571     0.004307
AU2242   AU        0.552645    0.695078    0.442000     0.007504
NI2243   NI        0.586087    0.664135    0.436683     0.004307
AU2244   AU        0.591396    0.689807    0.476588     0.007504
NI2245   NI        0.615873    0.649004    0.463192     0.004307
AU2246   AU        0.625122    0.695932    0.439686     0.007504
AU2247   AU        0.663160    0.660297    0.442255     0.007504
AU2248   AU        0.642134    0.691373    0.480654     0.007504
AU2249   AU        0.706649    0.653908    0.469979     0.007504
AU2250   AU        0.699630    0.695235    0.439975     0.007504
AU2251   AU        0.732952    0.633080    0.431894     0.007504
AU2252   AU        0.730404    0.696009    0.478335     0.007504
AU2253   AU        0.756718    0.650867    0.476047     0.007504
AU2254   AU        0.740113    0.676905    0.435746     0.007504
NI2255   NI        0.779833    0.651494    0.418174     0.004307
NI2256   NI        0.798706    0.644593    0.469986     0.004307
NI2257   NI        0.118604    0.727796    0.478151     0.004307
AU2258   AU        0.150952    0.727276    0.435937     0.007504
NI2259   NI        0.139127    0.770523    0.490844     0.004307
AU2260   AU        0.174832    0.731834    0.480354     0.007504
NI2261   NI        0.176907    0.767850    0.452680     0.004307
AU2262   AU        0.230545    0.719237    0.435917     0.007504
AU2263   AU        0.216489    0.748618    0.472451     0.007504
AU2264   AU        0.263132    0.732438    0.471550     0.007504
AU2265   AU        0.251076    0.766448    0.432350     0.007504
AU2266   AU        0.286888    0.727818    0.426465     0.007504
AU2267   AU        0.296832    0.770389    0.450059     0.007504
AU2268   AU        0.313470    0.730460    0.477516     0.007504
AU2269   AU        0.348347    0.753476    0.448023     0.007504
NI2270   NI        0.337194    0.711275    0.428801     0.004307
AU2271   AU        0.372480    0.772493    0.489301     0.007504
NI2272   NI        0.411034    0.705597    0.514341     0.004307
AU2273   AU        0.398541    0.758569    0.441454     0.007504
NI2274   NI        0.429715    0.701956    0.473104     0.004307
AU2275   AU        0.418856    0.754340    0.479288     0.007504
NI2276   NI        0.474846    0.721030    0.469324     0.004307
NI2277   NI        0.438949    0.741672    0.435942     0.004307
AU2278   AU        0.508462    0.718154    0.426067     0.007504
AU2279   AU        0.518434    0.740063    0.469278     0.007504
AU2280   AU        0.545462    0.709459    0.489649     0.007504
AU2281   AU        0.545188    0.756452    0.432700     0.007504
AU2282   AU        0.586875    0.729489    0.436223     0.007504
AU2283   AU        0.572141    0.754490    0.475659     0.007504
AU2284   AU        0.619938    0.733150    0.474500     0.007504
AU2285   AU        0.633393    0.770083    0.437783     0.007504
AU2286   AU        0.658689    0.725679    0.443398     0.007504
AU2287   AU        0.656416    0.756640    0.483191     0.007504
AU2288   AU        0.697378    0.731341    0.473159     0.007504
AU2289   AU        0.683269    0.768536    0.440728     0.007504
NI2290   NI        0.729778    0.727693    0.436111     0.004307
NI2291   NI        0.728844    0.771354    0.462775     0.004307
NI2292   NI        0.774983    0.719268    0.477463     0.004307
NI2293   NI        0.205107    0.791651    0.485323     0.004307
NI2294   NI        0.214192    0.794753    0.444177     0.004307
AU2295   AU        0.255993    0.780779    0.479622     0.007504
NI2296   NI        0.247329    0.826821    0.491410     0.004307
NI2297   NI        0.256621    0.817942    0.449459     0.004307
NI2298   NI        0.290932    0.817253    0.474022     0.004307
AU2299   AU        0.335020    0.790736    0.482112     0.007504
NI2300   NI        0.361332    0.844683    0.443751     0.004307
AU2301   AU        0.369809    0.799521    0.446938     0.007504
AU2302   AU        0.369170    0.823756    0.493802     0.007504
AU2303   AU        0.408271    0.800768    0.465549     0.007504
NI2304   NI        0.405929    0.844736    0.435984     0.004307
AU2305   AU        0.449209    0.792230    0.445847     0.007504
AU2306   AU        0.449968    0.835336    0.466756     0.007504
AU2307   AU        0.490645    0.813064    0.477898     0.007504
AU2308   AU        0.486353    0.818712    0.426906     0.007504
AU2309   AU        0.499240    0.775311    0.445967     0.007504
NI2310   NI        0.522034    0.839437    0.464915     0.004307
AU2311   AU        0.532647    0.787381    0.476182     0.007504
AU2312   AU        0.536495    0.804861    0.435378     0.007504
AU2313   AU        0.584083    0.785552    0.438407     0.007504
NI2314   NI        0.575021    0.821304    0.474448     0.004307
AU2315   AU        0.608022    0.786883    0.477949     0.007504
NI2316   NI        0.626051    0.822270    0.450456     0.004307
NI2317   NI        0.658582    0.809914    0.420602     0.004307
NI2318   NI        0.708130    0.810233    0.420997     0.004307
NI2319   NI        0.373746    0.862824    0.398003     0.004307
NI2320   NI        0.437324    0.834521    0.513852     0.004307
NI2321   NI        0.408519    0.847738    0.482870     0.004307
NI2322   NI        0.479672    0.844350    0.509062     0.004307
NI2323   NI        0.499995    0.855415    0.411046     0.004307
NI2324   NI        0.224605    0.063241    0.605923     0.004307
NI2325   NI        0.290795    0.030040    0.510934     0.004307
NI2326   NI        0.327277    0.050266    0.509726     0.004307
NI2327   NI        0.361623    0.043656    0.549028     0.004307
AU2328   AU        0.398532    0.040979    0.513849     0.007504
NI2329   NI        0.473783    0.019821    0.538410     0.004307
NI2330   NI        0.434575    0.043149    0.554529     0.004307
NI2331   NI        0.478751    0.040228    0.499447     0.004307
NI2332   NI        0.503797    0.042984    0.552890     0.004307
NI2333   NI        0.542529    0.040122    0.519054     0.004307
NI2334   NI        0.588086    0.064972    0.531246     0.004307
AU2335   AU        0.622594    0.094625    0.539509     0.007504
NI2336   NI        0.171616    0.100964    0.486258     0.004307
NI2337   NI        0.202946    0.099766    0.514880     0.004307
NI2338   NI        0.227937    0.103497    0.562183     0.004307
NI2339   NI        0.230087    0.062160    0.537999     0.004307
AU2340   AU        0.248505    0.103425    0.514404     0.007504
AU2341   AU        0.287904    0.074344    0.506202     0.007504
AU2342   AU        0.285915    0.103500    0.547273     0.007504
NI2343   NI        0.327234    0.073447    0.552037     0.004307
AU2344   AU        0.324433    0.109503    0.514141     0.007504
AU2345   AU        0.364631    0.075040    0.511473     0.007504
AU2346   AU        0.355826    0.105748    0.553772     0.007504
AU2347   AU        0.395837    0.076288    0.551138     0.007504
AU2348   AU        0.394330    0.106593    0.514978     0.007504
AU2349   AU        0.433102    0.075326    0.515656     0.007504
AU2350   AU        0.431446    0.113793    0.548769     0.007504
AU2351   AU        0.471247    0.079655    0.550031     0.007504
AU2352   AU        0.471803    0.108334    0.508211     0.007504
AU2353   AU        0.505445    0.072101    0.513960     0.007504
AU2354   AU        0.510467    0.108908    0.539897     0.007504
NI2355   NI        0.544169    0.067487    0.557555     0.004307
AU2356   AU        0.553430    0.089764    0.518520     0.007504
NI2357   NI        0.583810    0.058611    0.486591     0.004307
AU2358   AU        0.583644    0.126279    0.546977     0.007504
NI2359   NI        0.618820    0.084789    0.600098     0.004307
AU2360   AU        0.619426    0.103589    0.491752     0.007504
NI2361   NI        0.660942    0.113048    0.515969     0.004307
NI2362   NI        0.657088    0.118219    0.557482     0.004307
NI2363   NI        0.707116    0.129338    0.530899     0.004307
NI2364   NI        0.140207    0.137683    0.515269     0.004307
AU2365   AU        0.190645    0.139967    0.523691     0.007504
AU2366   AU        0.162710    0.178373    0.538398     0.007504
AU2367   AU        0.196824    0.141608    0.567473     0.007504
AU2368   AU        0.191410    0.181384    0.496691     0.007504
AU2369   AU        0.223779    0.146317    0.497867     0.007504
AU2370   AU        0.212899    0.180153    0.537291     0.007504
AU2371   AU        0.237377    0.142750    0.545257     0.007504
AU2372   AU        0.256915    0.181756    0.516351     0.007504
AU2373   AU        0.291631    0.144469    0.517569     0.007504
AU2374   AU        0.297386    0.186634    0.550876     0.007504
AU2375   AU        0.325069    0.146032    0.547904     0.007504
NI2376   NI        0.332168    0.185830    0.512529     0.004307
AU2377   AU        0.360606    0.144307    0.513339     0.007504
AU2378   AU        0.350218    0.180199    0.556176     0.007504
AU2379   AU        0.390211    0.144928    0.551228     0.007504
NI2380   NI        0.396096    0.168045    0.510318     0.004307
NI2381   NI        0.426467    0.136330    0.511447     0.004307
NI2382   NI        0.431923    0.171952    0.539847     0.004307
AU2383   AU        0.469905    0.146738    0.544201     0.007504
NI2384   NI        0.481312    0.187479    0.519511     0.004307
AU2385   AU        0.504759    0.149202    0.510334     0.007504
NI2386   NI        0.506976    0.180625    0.554349     0.004307
AU2387   AU        0.544895    0.138360    0.525105     0.007504
AU2388   AU        0.533803    0.187264    0.511296     0.007504
AU2389   AU        0.587460    0.146498    0.491694     0.007504
AU2390   AU        0.566668    0.175321    0.552038     0.007504
AU2391   AU        0.620902    0.137070    0.527569     0.007504
NI2392   NI        0.622346    0.183554    0.527546     0.004307
AU2393   AU        0.664643    0.155014    0.520967     0.007504
AU2394   AU        0.662123    0.190772    0.551625     0.007504
AU2395   AU        0.699158    0.162678    0.559343     0.007504
AU2396   AU        0.696942    0.189883    0.517530     0.007504
NI2397   NI        0.689915    0.161997    0.483854     0.004307
AU2398   AU        0.732753    0.192666    0.554477     0.007504
NI2399   NI        0.737536    0.163460    0.522169     0.004307
NI2400   NI        0.020059    0.233300    0.517796     0.004307
NI2401   NI        0.060889    0.220000    0.549399     0.004307
NI2402   NI        0.048778    0.265821    0.546962     0.004307
AU2403   AU        0.128163    0.215912    0.546814     0.007504
AU2404   AU        0.123485    0.256617    0.512405     0.007504
AU2405   AU        0.159688    0.219794    0.510875     0.007504
AU2406   AU        0.159809    0.254820    0.550251     0.007504
AU2407   AU        0.193066    0.218080    0.548224     0.007504
AU2408   AU        0.195225    0.255363    0.514931     0.007504
AU2409   AU        0.225654    0.220695    0.513090     0.007504
AU2410   AU        0.221757    0.258318    0.554641     0.007504
AU2411   AU        0.254061    0.218116    0.550631     0.007504
AU2412   AU        0.255967    0.255045    0.513765     0.007504
AU2413   AU        0.288937    0.221461    0.513032     0.007504
NI2414   NI        0.294906    0.252508    0.556118     0.004307
NI2415   NI        0.331192    0.222164    0.545982     0.004307
NI2416   NI        0.321556    0.261538    0.524367     0.004307
NI2417   NI        0.355083    0.235185    0.514557     0.004307
NI2418   NI        0.344993    0.253661    0.575100     0.004307
NI2419   NI        0.393416    0.203668    0.538349     0.004307
AU2420   AU        0.392061    0.264448    0.494308     0.007504
NI2421   NI        0.439179    0.202527    0.514108     0.004307
NI2422   NI        0.430375    0.235840    0.540316     0.004307
NI2423   NI        0.473252    0.218816    0.550012     0.004307
NI2424   NI        0.480262    0.228251    0.486547     0.004307
NI2425   NI        0.520196    0.231073    0.501586     0.004307
NI2426   NI        0.485947    0.246732    0.523632     0.004307
NI2427   NI        0.546344    0.222856    0.545462     0.004307
NI2428   NI        0.555263    0.257956    0.508068     0.004307
AU2429   AU        0.583346    0.213208    0.519370     0.007504
NI2430   NI        0.581464    0.251254    0.554798     0.004307
AU2431   AU        0.618227    0.219238    0.561548     0.007504
NI2432   NI        0.615992    0.243740    0.516087     0.004307
AU2433   AU        0.662507    0.229810    0.517135     0.007504
NI2434   NI        0.654790    0.280199    0.529851     0.004307
AU2435   AU        0.695932    0.219461    0.555111     0.007504
NI2436   NI        0.694303    0.253684    0.524162     0.004307
AU2437   AU        0.729039    0.220746    0.514701     0.007504
AU2438   AU        0.743028    0.242047    0.554009     0.007504
NI2439   NI        0.774635    0.217920    0.528487     0.004307
AU2440   AU        0.786506    0.256112    0.511831     0.007504
NI2441   NI        0.805349    0.214131    0.492604     0.004307
NI2442   NI        0.808114    0.264409    0.556255     0.004307
NI2443   NI        0.834439    0.264354    0.487130     0.004307
NI2444   NI        0.033494    0.306707    0.553707     0.004307
AU2445   AU        0.043999    0.320030    0.509573     0.007504
AU2446   AU        0.084783    0.290066    0.511018     0.007504
AU2447   AU        0.081212    0.318671    0.547257     0.007504
AU2448   AU        0.123051    0.289350    0.552669     0.007504
AU2449   AU        0.119213    0.320988    0.512258     0.007504
AU2450   AU        0.161152    0.293268    0.518558     0.007504
AU2451   AU        0.148220    0.329991    0.552593     0.007504
AU2452   AU        0.186961    0.298216    0.560312     0.007504
NI2453   NI        0.188851    0.329954    0.520897     0.004307
AU2454   AU        0.223124    0.296486    0.523966     0.007504
NI2455   NI        0.217401    0.333349    0.560370     0.004307
NI2456   NI        0.262061    0.280947    0.547938     0.004307
NI2457   NI        0.265811    0.326847    0.536229     0.004307
NI2458   NI        0.301364    0.299837    0.531628     0.004307
NI2459   NI        0.299686    0.319104    0.570685     0.004307
NI2460   NI        0.335625    0.298476    0.560613     0.004307
NI2461   NI        0.337831    0.308095    0.515954     0.004307
AU2462   AU        0.373294    0.278412    0.538845     0.007504
AU2463   AU        0.379763    0.326218    0.542920     0.007504
NI2464   NI        0.412644    0.272308    0.569306     0.004307
AU2465   AU        0.414513    0.338189    0.506816     0.007504
AU2466   AU        0.416743    0.296980    0.526270     0.007504
AU2467   AU        0.451350    0.332086    0.538299     0.007504
AU2468   AU        0.468773    0.283940    0.536884     0.007504
AU2469   AU        0.460548    0.310914    0.500281     0.007504
NI2470   NI        0.540071    0.299963    0.509937     0.004307
AU2471   AU        0.500999    0.324412    0.526960     0.007504
AU2472   AU        0.516018    0.280919    0.542665     0.007504
AU2473   AU        0.539363    0.342819    0.516365     0.007504
NI2474   NI        0.603630    0.309894    0.536991     0.004307
AU2475   AU        0.568267    0.347363    0.551459     0.007504
NI2476   NI        0.620879    0.270568    0.553405     0.004307
AU2477   AU        0.611311    0.340826    0.508146     0.007504
NI2478   NI        0.636081    0.304278    0.490599     0.004307
AU2479   AU        0.640028    0.338112    0.549952     0.007504
NI2480   NI        0.701822    0.303374    0.522303     0.004307
AU2481   AU        0.674292    0.348505    0.513770     0.007504
AU2482   AU        0.738385    0.263627    0.507739     0.007504
AU2483   AU        0.712891    0.344933    0.544986     0.007504
AU2484   AU        0.760070    0.282166    0.550333     0.007504
AU2485   AU        0.748047    0.317452    0.522018     0.007504
NI2486   NI        0.813666    0.289247    0.518455     0.004307
AU2487   AU        0.789305    0.316792    0.545486     0.007504
NI2488   NI        0.831550    0.308266    0.553636     0.004307
NI2489   NI        0.845775    0.329142    0.499217     0.004307
AU2490   AU        0.046396    0.354254    0.545492     0.007504
AU2491   AU        0.045279    0.394090    0.507540     0.007504
AU2492   AU        0.080589    0.354841    0.510525     0.007504
AU2493   AU        0.076234    0.396249    0.544989     0.007504
AU2494   AU        0.107382    0.362200    0.554641     0.007504
AU2495   AU        0.115216    0.390982    0.512082     0.007504
NI2496   NI        0.153699    0.353930    0.503016     0.004307
AU2497   AU        0.151954    0.389507    0.546856     0.007504
NI2498   NI        0.189516    0.365544    0.553480     0.004307
NI2499   NI        0.184898    0.392790    0.515612     0.004307
NI2500   NI        0.239177    0.381104    0.498236     0.004307
NI2501   NI        0.217526    0.401130    0.560105     0.004307
NI2502   NI        0.237952    0.369351    0.540557     0.004307
NI2503   NI        0.266975    0.400951    0.546917     0.004307
NI2504   NI        0.320690    0.342748    0.541493     0.004307
NI2505   NI        0.312574    0.381195    0.529626     0.004307
NI2506   NI        0.360649    0.365745    0.544349     0.004307
NI2507   NI        0.315638    0.388753    0.477065     0.004307
NI2508   NI        0.376838    0.360153    0.506272     0.004307
NI2509   NI        0.363088    0.404850    0.528967     0.004307
AU2510   AU        0.411594    0.366277    0.551355     0.007504
NI2511   NI        0.406733    0.392044    0.514007     0.004307
AU2512   AU        0.443867    0.369321    0.515012     0.007504
AU2513   AU        0.443826    0.404971    0.554897     0.007504
AU2514   AU        0.470642    0.370820    0.551655     0.007504
AU2515   AU        0.469716    0.406625    0.517456     0.007504
AU2516   AU        0.502295    0.374468    0.515320     0.007504
AU2517   AU        0.493298    0.409839    0.555524     0.007504
AU2518   AU        0.521745    0.368624    0.556826     0.007504
AU2519   AU        0.533152    0.408027    0.521999     0.007504
AU2520   AU        0.573813    0.377359    0.510163     0.007504
AU2521   AU        0.563245    0.400553    0.562550     0.007504
AU2522   AU        0.604710    0.371102    0.552354     0.007504
AU2523   AU        0.612251    0.408144    0.524739     0.007504
AU2524   AU        0.644156    0.378358    0.520797     0.007504
AU2525   AU        0.639282    0.401515    0.566273     0.007504
AU2526   AU        0.678832    0.370009    0.556285     0.007504
AU2527   AU        0.696267    0.388364    0.514761     0.007504
AU2528   AU        0.741469    0.365179    0.512566     0.007504
AU2529   AU        0.724220    0.394271    0.554649     0.007504
AU2530   AU        0.763961    0.361359    0.550513     0.007504
AU2531   AU        0.743095    0.409505    0.513048     0.007504
AU2532   AU        0.789324    0.383972    0.523024     0.007504
AU2533   AU        0.800685    0.390825    0.571472     0.007504
NI2534   NI        0.815504    0.353566    0.545958     0.004307
AU2535   AU        0.827999    0.406991    0.536141     0.007504
NI2536   NI        0.013748    0.431733    0.505381     0.004307
NI2537   NI        0.044075    0.428840    0.544955     0.004307
NI2538   NI        0.028745    0.490459    0.518968     0.004307
AU2539   AU        0.080945    0.430004    0.509756     0.007504
AU2540   AU        0.073495    0.472577    0.537544     0.007504
AU2541   AU        0.120154    0.424434    0.545534     0.007504
AU2542   AU        0.115346    0.466626    0.514058     0.007504
AU2543   AU        0.149322    0.430099    0.512658     0.007504
AU2544   AU        0.148772    0.465541    0.549468     0.007504
AU2545   AU        0.183263    0.428806    0.550486     0.007504
AU2546   AU        0.185552    0.466604    0.515513     0.007504
NI2547   NI        0.220586    0.428349    0.518183     0.004307
NI2548   NI        0.223868    0.468791    0.565923     0.004307
NI2549   NI        0.251874    0.448591    0.544175     0.004307
NI2550   NI        0.231274    0.484486    0.522337     0.004307
NI2551   NI        0.296357    0.440925    0.536853     0.004307
NI2552   NI        0.306889    0.479053    0.554373     0.004307
NI2553   NI        0.328573    0.433766    0.562173     0.004307
NI2554   NI        0.321956    0.473019    0.510944     0.004307
NI2555   NI        0.374197    0.443308    0.498488     0.004307
NI2556   NI        0.375315    0.460576    0.539109     0.004307
NI2557   NI        0.402643    0.429621    0.567531     0.004307
NI2558   NI        0.401208    0.475194    0.503330     0.004307
NI2559   NI        0.425723    0.430612    0.518103     0.004307
NI2560   NI        0.421028    0.467085    0.554902     0.004307
AU2561   AU        0.466694    0.449500    0.542527     0.007504
AU2562   AU        0.480121    0.483444    0.509712     0.007504
AU2563   AU        0.503578    0.441666    0.519470     0.007504
AU2564   AU        0.506051    0.483278    0.551908     0.007504
AU2565   AU        0.536494    0.441944    0.559998     0.007504
AU2566   AU        0.541685    0.479299    0.525868     0.007504
AU2567   AU        0.573320    0.434765    0.529130     0.007504
NI2568   NI        0.584743    0.483399    0.538555     0.004307
NI2569   NI        0.606493    0.431321    0.566272     0.004307
AU2570   AU        0.618101    0.450364    0.512397     0.007504
AU2571   AU        0.660490    0.426944    0.511777     0.007504
AU2572   AU        0.664528    0.463448    0.545313     0.007504
NI2573   NI        0.697533    0.425872    0.533305     0.004307
NI2574   NI        0.686504    0.468715    0.504900     0.004307
NI2575   NI        0.702891    0.423636    0.485698     0.004307
AU2576   AU        0.715233    0.473876    0.545271     0.007504
AU2577   AU        0.772309    0.424141    0.549983     0.007504
AU2578   AU        0.756948    0.467996    0.497473     0.007504
AU2579   AU        0.789036    0.425861    0.503383     0.007504
AU2580   AU        0.784766    0.475335    0.561912     0.007504
NI2581   NI        0.846303    0.413805    0.575213     0.004307
AU2582   AU        0.807973    0.466956    0.516102     0.007504
NI2583   NI        0.862616    0.398888    0.506066     0.004307
NI2584   NI        0.045864    0.509864    0.558078     0.004307
NI2585   NI        0.006014    0.537108    0.501242     0.004307
AU2586   AU        0.075914    0.512067    0.519279     0.007504
NI2587   NI        0.078907    0.536274    0.557628     0.004307
AU2588   AU        0.112768    0.500536    0.549371     0.007504
AU2589   AU        0.119737    0.541276    0.519080     0.007504
AU2590   AU        0.151438    0.503626    0.516698     0.007504
AU2591   AU        0.149888    0.536370    0.552881     0.007504
AU2592   AU        0.185906    0.503364    0.553321     0.007504
NI2593   NI        0.185480    0.540614    0.518894     0.004307
NI2594   NI        0.252670    0.516370    0.481952     0.004307
NI2595   NI        0.224009    0.528213    0.531533     0.004307
NI2596   NI        0.261935    0.505895    0.546037     0.004307
NI2597   NI        0.262718    0.544420    0.521598     0.004307
NI2598   NI        0.274960    0.484700    0.512411     0.004307
NI2599   NI        0.302959    0.527865    0.527468     0.004307
NI2600   NI        0.339987    0.518024    0.581352     0.004307
NI2601   NI        0.349494    0.543435    0.504120     0.004307
NI2602   NI        0.350543    0.500885    0.540256     0.004307
NI2603   NI        0.375570    0.538722    0.549084     0.004307
NI2604   NI        0.381340    0.494070    0.567731     0.004307
NI2605   NI        0.384917    0.516348    0.504852     0.004307
NI2606   NI        0.438818    0.494662    0.513388     0.004307
NI2607   NI        0.455741    0.532010    0.528078     0.004307
AU2608   AU        0.456150    0.495918    0.552076     0.007504
NI2609   NI        0.495806    0.559350    0.486590     0.004307
AU2610   AU        0.518903    0.518545    0.517427     0.007504
NI2611   NI        0.489661    0.528439    0.559824     0.004307
AU2612   AU        0.538266    0.520849    0.563101     0.007504
NI2613   NI        0.537320    0.556727    0.538386     0.004307
AU2614   AU        0.565857    0.519556    0.519211     0.007504
NI2615   NI        0.584570    0.531255    0.561416     0.004307
NI2616   NI        0.618740    0.508589    0.544335     0.004307
NI2617   NI        0.600945    0.547292    0.497154     0.004307
NI2618   NI        0.652158    0.506200    0.511180     0.004307
NI2619   NI        0.650171    0.538404    0.549527     0.004307
AU2620   AU        0.680882    0.506430    0.541275     0.007504
AU2621   AU        0.681066    0.546528    0.506039     0.007504
AU2622   AU        0.719131    0.505535    0.506673     0.007504
AU2623   AU        0.712321    0.544110    0.541632     0.007504
AU2624   AU        0.753053    0.511720    0.543658     0.007504
AU2625   AU        0.756107    0.552541    0.512618     0.007504
AU2626   AU        0.793834    0.517564    0.514635     0.007504
AU2627   AU        0.787721    0.549601    0.551474     0.007504
NI2628   NI        0.830729    0.524455    0.548822     0.004307
NI2629   NI        0.843344    0.531402    0.504010     0.004307
NI2630   NI        0.044243    0.540761    0.521046     0.004307
NI2631   NI        0.062968    0.578774    0.557615     0.004307
AU2632   AU        0.079319    0.577905    0.515368     0.007504
NI2633   NI        0.075758    0.626298    0.535225     0.004307
AU2634   AU        0.113671    0.573657    0.556717     0.007504
AU2635   AU        0.116033    0.612462    0.524420     0.007504
AU2636   AU        0.151486    0.579296    0.521771     0.007504
AU2637   AU        0.150781    0.621511    0.548837     0.007504
NI2638   NI        0.191587    0.558436    0.556612     0.004307
NI2639   NI        0.186609    0.616623    0.507306     0.004307
NI2640   NI        0.216098    0.581698    0.523514     0.004307
AU2641   AU        0.202526    0.623004    0.550607     0.007504
NI2642   NI        0.271284    0.585776    0.544039     0.004307
NI2643   NI        0.248303    0.620788    0.522740     0.004307
NI2644   NI        0.291759    0.570542    0.502536     0.004307
NI2645   NI        0.301487    0.604744    0.567067     0.004307
NI2646   NI        0.322109    0.567805    0.545061     0.004307
NI2647   NI        0.333975    0.619877    0.521891     0.004307
NI2648   NI        0.357941    0.580233    0.530134     0.004307
NI2649   NI        0.387446    0.607336    0.540193     0.004307
NI2650   NI        0.400582    0.568132    0.568226     0.004307
NI2651   NI        0.427162    0.601006    0.502343     0.004307
NI2652   NI        0.435952    0.567594    0.529697     0.004307
AU2653   AU        0.427654    0.630792    0.538026     0.007504
NI2654   NI        0.487942    0.562994    0.531690     0.004307
NI2655   NI        0.471245    0.610711    0.542053     0.004307
NI2656   NI        0.523843    0.595043    0.517004     0.004307
NI2657   NI        0.514457    0.602810    0.563589     0.004307
NI2658   NI        0.561881    0.593583    0.560957     0.004307
NI2659   NI        0.569101    0.605902    0.517027     0.004307
NI2660   NI        0.576768    0.566068    0.526986     0.004307
NI2661   NI        0.609727    0.605268    0.547029     0.004307
NI2662   NI        0.614089    0.561333    0.541528     0.004307
NI2663   NI        0.607892    0.607015    0.491019     0.004307
NI2664   NI        0.642223    0.577761    0.507366     0.004307
NI2665   NI        0.644496    0.623134    0.525942     0.004307
AU2666   AU        0.681989    0.585583    0.541330     0.007504
AU2667   AU        0.691659    0.619552    0.502577     0.007504
AU2668   AU        0.717224    0.582614    0.506649     0.007504
AU2669   AU        0.719071    0.616226    0.544799     0.007504
AU2670   AU        0.745823    0.580164    0.550026     0.007504
AU2671   AU        0.755330    0.613900    0.509422     0.007504
AU2672   AU        0.814499    0.567641    0.522890     0.007504
NI2673   NI        0.832074    0.619746    0.556291     0.004307
NI2674   NI        0.814697    0.552616    0.596107     0.004307
NI2675   NI        0.840249    0.608687    0.505370     0.004307
NI2676   NI        0.079608    0.663253    0.502244     0.004307
NI2677   NI        0.101976    0.660749    0.548490     0.004307
NI2678   NI        0.115304    0.692820    0.510043     0.004307
AU2679   AU        0.141931    0.657869    0.517955     0.007504
AU2680   AU        0.139759    0.695460    0.551075     0.007504
AU2681   AU        0.175412    0.663897    0.551044     0.007504
AU2682   AU        0.176869    0.694320    0.515343     0.007504
AU2683   AU        0.210956    0.657459    0.514920     0.007504
AU2684   AU        0.216198    0.693851    0.552050     0.007504
AU2685   AU        0.250271    0.664136    0.549084     0.007504
AU2686   AU        0.252505    0.695523    0.512429     0.007504
AU2687   AU        0.292942    0.642174    0.528890     0.007504
AU2688   AU        0.292135    0.682160    0.560591     0.007504
AU2689   AU        0.327956    0.644130    0.562462     0.007504
AU2690   AU        0.331767    0.679454    0.524678     0.007504
NI2691   NI        0.368604    0.644536    0.531137     0.004307
NI2692   NI        0.364714    0.680742    0.560032     0.004307
NI2693   NI        0.405614    0.670545    0.538105     0.004307
NI2694   NI        0.371993    0.680133    0.496197     0.004307
NI2695   NI        0.454180    0.636692    0.496640     0.004307
AU2696   AU        0.439238    0.696163    0.544684     0.007504
NI2697   NI        0.461398    0.658458    0.541405     0.004307
AU2698   AU        0.477713    0.678793    0.508167     0.007504
NI2699   NI        0.499936    0.636159    0.520774     0.004307
AU2700   AU        0.504106    0.676526    0.550479     0.007504
NI2701   NI        0.539065    0.637572    0.546783     0.004307
AU2702   AU        0.530552    0.672663    0.513794     0.007504
NI2703   NI        0.567822    0.655591    0.488783     0.004307
AU2704   AU        0.573160    0.677948    0.536667     0.007504
NI2705   NI        0.583964    0.636244    0.559081     0.004307
AU2706   AU        0.616243    0.667144    0.513242     0.007504
AU2707   AU        0.659850    0.652422    0.493564     0.007504
AU2708   AU        0.656576    0.683044    0.531143     0.007504
AU2709   AU        0.685771    0.648346    0.539087     0.007504
AU2710   AU        0.691032    0.689832    0.500624     0.007504
AU2711   AU        0.727524    0.659065    0.517750     0.007504
AU2712   AU        0.703732    0.693148    0.549738     0.007504
AU2713   AU        0.760924    0.644254    0.552345     0.007504
NI2714   NI        0.771037    0.676537    0.519756     0.004307
NI2715   NI        0.798237    0.618517    0.524207     0.004307
NI2716   NI        0.141770    0.728067    0.518034     0.004307
AU2717   AU        0.180567    0.724487    0.554387     0.007504
NI2718   NI        0.181097    0.759767    0.520243     0.004307
AU2719   AU        0.211182    0.724990    0.514158     0.007504
AU2720   AU        0.222845    0.751161    0.549616     0.007504
AU2721   AU        0.256399    0.717113    0.555893     0.007504
AU2722   AU        0.255648    0.745739    0.514981     0.007504
AU2723   AU        0.294760    0.718072    0.522493     0.007504
AU2724   AU        0.295823    0.750889    0.550358     0.007504
AU2725   AU        0.327142    0.719607    0.557894     0.007504
AU2726   AU        0.334045    0.752169    0.516619     0.007504
AU2727   AU        0.368007    0.716618    0.527520     0.007504
AU2728   AU        0.359458    0.756228    0.559057     0.007504
AU2729   AU        0.396767    0.720142    0.559668     0.007504
AU2730   AU        0.394249    0.755570    0.523321     0.007504
NI2731   NI        0.448987    0.733269    0.505687     0.004307
AU2732   AU        0.433514    0.755652    0.554230     0.007504
AU2733   AU        0.481703    0.719132    0.545531     0.007504
AU2734   AU        0.492272    0.765376    0.496359     0.007504
NI2735   NI        0.508272    0.712220    0.510387     0.004307
AU2736   AU        0.516508    0.757922    0.553126     0.007504
AU2737   AU        0.539515    0.713536    0.542355     0.007504
AU2738   AU        0.541337    0.750398    0.509560     0.007504
AU2739   AU        0.585660    0.723746    0.515148     0.007504
AU2740   AU        0.566689    0.756788    0.551304     0.007504
AU2741   AU        0.617412    0.743496    0.553223     0.007504
AU2742   AU        0.618516    0.762506    0.513837     0.007504
AU2743   AU        0.639894    0.722749    0.519186     0.007504
NI2744   NI        0.655116    0.765378    0.536350     0.004307
AU2745   AU        0.689188    0.735557    0.521263     0.007504
NI2746   NI        0.692505    0.775633    0.496300     0.004307
NI2747   NI        0.738353    0.711267    0.518003     0.004307
NI2748   NI        0.230723    0.793582    0.520804     0.004307
AU2749   AU        0.262260    0.779475    0.550402     0.007504
NI2750   NI        0.275846    0.827490    0.529835     0.004307
AU2751   AU        0.296309    0.785207    0.511258     0.007504
NI2752   NI        0.269821    0.820461    0.570307     0.004307
AU2753   AU        0.316291    0.791844    0.554154     0.007504
NI2754   NI        0.325946    0.824057    0.517750     0.004307
AU2755   AU        0.359695    0.793490    0.532877     0.007504
NI2756   NI        0.350293    0.862229    0.490453     0.004307
AU2757   AU        0.396769    0.791683    0.561768     0.007504
NI2758   NI        0.399044    0.835913    0.545524     0.004307
AU2759   AU        0.406920    0.796298    0.514156     0.007504
AU2760   AU        0.441917    0.806491    0.545456     0.007504
AU2761   AU        0.449395    0.791114    0.491281     0.007504
AU2762   AU        0.482117    0.803023    0.526364     0.007504
AU2763   AU        0.525296    0.795352    0.523596     0.007504
NI2764   NI        0.508878    0.826153    0.553443     0.004307
AU2765   AU        0.546131    0.798093    0.569872     0.007504
NI2766   NI        0.515420    0.874353    0.532948     0.004307
AU2767   AU        0.574233    0.786235    0.513079     0.007504
NI2768   NI        0.551290    0.829618    0.598978     0.004307
NI2769   NI        0.592672    0.798992    0.552113     0.004307
NI2770   NI        0.614395    0.810177    0.513386     0.004307
NI2771   NI        0.641786    0.801025    0.557456     0.004307
NI2772   NI        0.473033    0.853507    0.584355     0.004307
NI2773   NI        0.363192    0.071058    0.588815     0.004307
NI2774   NI        0.311319    0.026290    0.546161     0.004307
NI2775   NI        0.402036    0.041102    0.582210     0.004307
NI2776   NI        0.420898    0.045018    0.672030     0.004307
NI2777   NI        0.465539    0.047569    0.583645     0.004307
NI2778   NI        0.481632    0.039157    0.636397     0.004307
NI2779   NI        0.522768    0.036185    0.592345     0.004307
NI2780   NI        0.183960    0.095928    0.585614     0.004307
NI2781   NI        0.211242    0.102853    0.627746     0.004307
NI2782   NI        0.257079    0.080192    0.641994     0.004307
NI2783   NI        0.266098    0.088737    0.590035     0.004307
NI2784   NI        0.280978    0.056854    0.566055     0.004307
NI2785   NI        0.279405    0.115742    0.630186     0.004307
NI2786   NI        0.303187    0.066821    0.607040     0.004307
AU2787   AU        0.311266    0.117559    0.583303     0.007504
NI2788   NI        0.405593    0.073543    0.617529     0.004307
AU2789   AU        0.367174    0.101539    0.624537     0.007504
NI2790   NI        0.433886    0.081453    0.657332     0.004307
AU2791   AU        0.394064    0.111273    0.586829     0.007504
AU2792   AU        0.433213    0.084549    0.581315     0.007504
AU2793   AU        0.431495    0.115024    0.622106     0.007504
AU2794   AU        0.470047    0.083450    0.616102     0.007504
AU2795   AU        0.469866    0.116957    0.584220     0.007504
AU2796   AU        0.506555    0.083070    0.585226     0.007504
AU2797   AU        0.503485    0.117231    0.618868     0.007504
NI2798   NI        0.519910    0.070310    0.628393     0.004307
AU2799   AU        0.545278    0.114891    0.583376     0.007504
AU2800   AU        0.585490    0.089485    0.572410     0.007504
AU2801   AU        0.585139    0.116732    0.613775     0.007504
NI2802   NI        0.556820    0.073487    0.606133     0.004307
AU2803   AU        0.620518    0.128471    0.578148     0.007504
NI2804   NI        0.656236    0.118168    0.607555     0.004307
NI2805   NI        0.708214    0.142054    0.599073     0.004307
NI2806   NI        0.115622    0.210799    0.597314     0.004307
NI2807   NI        0.132215    0.175763    0.576137     0.004307
NI2808   NI        0.165262    0.177543    0.620096     0.004307
NI2809   NI        0.195601    0.145430    0.613243     0.004307
AU2810   AU        0.192700    0.182380    0.583852     0.007504
AU2811   AU        0.235896    0.136612    0.596498     0.007504
AU2812   AU        0.222524    0.181277    0.625286     0.007504
AU2813   AU        0.271147    0.160534    0.615262     0.007504
AU2814   AU        0.243193    0.177067    0.579649     0.007504
AU2815   AU        0.278039    0.150435    0.567059     0.007504
AU2816   AU        0.314375    0.148694    0.631780     0.007504
NI2817   NI        0.323818    0.103844    0.622450     0.004307
AU2818   AU        0.316195    0.169399    0.595328     0.007504
AU2819   AU        0.356243    0.140424    0.589301     0.007504
AU2820   AU        0.352676    0.180310    0.625328     0.007504
AU2821   AU        0.392898    0.144495    0.624727     0.007504
AU2822   AU        0.389751    0.177592    0.587107     0.007504
AU2823   AU        0.428785    0.147780    0.585946     0.007504
NI2824   NI        0.426344    0.182689    0.624838     0.004307
AU2825   AU        0.467442    0.153748    0.619027     0.007504
AU2826   AU        0.466659    0.179543    0.578933     0.007504
AU2827   AU        0.505436    0.150201    0.587119     0.007504
AU2828   AU        0.500530    0.189148    0.615617     0.007504
AU2829   AU        0.544008    0.144821    0.625627     0.007504
NI2830   NI        0.545490    0.186002    0.596697     0.004307
AU2831   AU        0.580649    0.153576    0.591140     0.007504
AU2832   AU        0.585412    0.166421    0.638640     0.007504
AU2833   AU        0.624073    0.151245    0.624323     0.007504
AU2834   AU        0.620827    0.171132    0.568052     0.007504
AU2835   AU        0.659478    0.159343    0.590785     0.007504
AU2836   AU        0.658005    0.186778    0.629331     0.007504
NI2837   NI        0.664454    0.144527    0.644671     0.004307
AU2838   AU        0.694480    0.194558    0.592308     0.007504
NI2839   NI        0.738268    0.169476    0.596719     0.004307
NI2840   NI        0.733952    0.195410    0.643894     0.004307
NI2841   NI        0.773882    0.203580    0.580192     0.004307
NI2842   NI        0.087037    0.286323    0.585764     0.004307
NI2843   NI        0.099794    0.234917    0.634860     0.004307
AU2844   AU        0.121874    0.251037    0.584373     0.007504
AU2845   AU        0.158410    0.216758    0.584897     0.007504
AU2846   AU        0.146340    0.246364    0.626323     0.007504
AU2847   AU        0.186231    0.218804    0.625140     0.007504
AU2848   AU        0.185198    0.256722    0.589942     0.007504
AU2849   AU        0.222867    0.220559    0.589995     0.007504
AU2850   AU        0.232139    0.242540    0.629142     0.007504
AU2851   AU        0.267222    0.207107    0.615437     0.007504
NI2852   NI        0.261792    0.249232    0.589348     0.004307
NI2853   NI        0.312811    0.216988    0.587399     0.004307
NI2854   NI        0.273056    0.267900    0.624356     0.004307
NI2855   NI        0.341767    0.227810    0.642300     0.004307
NI2856   NI        0.309918    0.276766    0.595269     0.004307
NI2857   NI        0.356296    0.209052    0.594948     0.004307
NI2858   NI        0.374084    0.259745    0.609788     0.004307
NI2859   NI        0.400728    0.217524    0.597499     0.004307
NI2860   NI        0.383924    0.235986    0.562161     0.004307
NI2861   NI        0.430737    0.201805    0.572883     0.004307
NI2862   NI        0.427379    0.251264    0.607324     0.004307
NI2863   NI        0.469686    0.219456    0.592985     0.004307
NI2864   NI        0.464764    0.255524    0.571479     0.004307
NI2865   NI        0.508572    0.219642    0.580262     0.004307
NI2866   NI        0.484457    0.249833    0.616965     0.004307
AU2867   AU        0.534462    0.231317    0.621020     0.007504
AU2868   AU        0.529668    0.259792    0.581061     0.007504
NI2869   NI        0.577738    0.215008    0.584130     0.004307
AU2870   AU        0.573163    0.257997    0.609107     0.007504
AU2871   AU        0.614175    0.198288    0.609608     0.007504
NI2872   NI        0.620353    0.246388    0.595430     0.004307
AU2873   AU        0.653696    0.210089    0.590975     0.007504
AU2874   AU        0.658787    0.250535    0.635235     0.007504
AU2875   AU        0.699580    0.219587    0.632440     0.007504
AU2876   AU        0.684537    0.243584    0.591201     0.007504
AU2877   AU        0.729423    0.224221    0.593766     0.007504
AU2878   AU        0.735087    0.252162    0.629731     0.007504
NI2879   NI        0.773416    0.218030    0.620995     0.004307
AU2880   AU        0.768154    0.255660    0.589541     0.007504
NI2881   NI        0.792478    0.272941    0.631342     0.004307
NI2882   NI        0.036770    0.322978    0.616512     0.004307
NI2883   NI        0.090267    0.251955    0.550352     0.004307
NI2884   NI        0.081221    0.318449    0.627354     0.004307
AU2885   AU        0.117031    0.286081    0.625895     0.007504
AU2886   AU        0.117367    0.326212    0.589184     0.007504
AU2887   AU        0.149727    0.290110    0.590297     0.007504
AU2888   AU        0.145652    0.326151    0.627425     0.007504
NI2889   NI        0.196159    0.292239    0.615874     0.004307
AU2890   AU        0.182034    0.332450    0.589401     0.007504
NI2891   NI        0.223475    0.295383    0.580944     0.004307
NI2892   NI        0.222510    0.330320    0.621387     0.004307
NI2893   NI        0.238952    0.289952    0.624276     0.004307
NI2894   NI        0.251274    0.337644    0.584544     0.004307
NI2895   NI        0.268662    0.296558    0.587928     0.004307
NI2896   NI        0.276159    0.324954    0.627850     0.004307
NI2897   NI        0.336384    0.273208    0.642786     0.004307
NI2898   NI        0.332338    0.310003    0.609522     0.004307
NI2899   NI        0.370230    0.298193    0.585286     0.004307
NI2900   NI        0.369442    0.335357    0.612865     0.004307
NI2901   NI        0.406720    0.292295    0.607579     0.004307
NI2902   NI        0.406839    0.330431    0.584405     0.004307
AU2903   AU        0.445357    0.302896    0.575268     0.007504
NI2904   NI        0.455716    0.328261    0.616255     0.004307
AU2905   AU        0.487471    0.297797    0.638774     0.007504
AU2906   AU        0.485330    0.334435    0.571632     0.007504
AU2907   AU        0.494213    0.292974    0.587923     0.007504
AU2908   AU        0.516148    0.331628    0.614489     0.007504
AU2909   AU        0.533127    0.285346    0.623630     0.007504
AU2910   AU        0.532873    0.320031    0.570495     0.007504
NI2911   NI        0.565635    0.289725    0.567216     0.004307
NI2912   NI        0.566510    0.311455    0.607515     0.004307
NI2913   NI        0.625846    0.286816    0.649493     0.004307
NI2914   NI        0.610241    0.313296    0.580222     0.004307
NI2915   NI        0.664575    0.277955    0.574675     0.004307
NI2916   NI        0.650737    0.306677    0.614165     0.004307
AU2917   AU        0.693871    0.281762    0.619168     0.007504
AU2918   AU        0.694132    0.315857    0.580719     0.007504
AU2919   AU        0.724587    0.276257    0.584442     0.007504
AU2920   AU        0.714463    0.327516    0.619447     0.007504
AU2921   AU        0.751075    0.293310    0.621130     0.007504
AU2922   AU        0.744998    0.321875    0.575287     0.007504
AU2923   AU        0.791594    0.297951    0.587091     0.007504
NI2924   NI        0.791855    0.313835    0.632827     0.004307
NI2925   NI        0.828060    0.322991    0.595517     0.004307
NI2926   NI        0.028950    0.371530    0.615471     0.004307
NI2927   NI        0.038796    0.390506    0.575427     0.004307
AU2928   AU        0.070573    0.349906    0.588869     0.007504
NI2929   NI        0.066798    0.389852    0.621164     0.004307
AU2930   AU        0.107461    0.362201    0.622715     0.007504
AU2931   AU        0.106763    0.399973    0.589946     0.007504
AU2932   AU        0.142306    0.366892    0.589580     0.007504
AU2933   AU        0.140589    0.401853    0.626627     0.007504
AU2934   AU        0.174550    0.363575    0.628202     0.007504
AU2935   AU        0.177111    0.401747    0.592407     0.007504
AU2936   AU        0.217404    0.368133    0.598357     0.007504
AU2937   AU        0.211920    0.406939    0.629671     0.007504
NI2938   NI        0.268739    0.370476    0.608573     0.004307
NI2939   NI        0.246003    0.409084    0.590457     0.004307
NI2940   NI        0.287836    0.362041    0.561579     0.004307
NI2941   NI        0.276379    0.429641    0.612494     0.004307
NI2942   NI        0.319503    0.364357    0.605655     0.004307
NI2943   NI        0.292583    0.403253    0.583532     0.004307
NI2944   NI        0.349706    0.338019    0.576718     0.004307
NI2945   NI        0.331695    0.393586    0.573187     0.004307
NI2946   NI        0.411083    0.338069    0.625941     0.004307
NI2947   NI        0.378847    0.393434    0.586186     0.004307
NI2948   NI        0.429647    0.371437    0.597881     0.004307
NI2949   NI        0.430586    0.406579    0.645403     0.004307
NI2950   NI        0.464863    0.372228    0.625014     0.004307
NI2951   NI        0.474373    0.410354    0.597273     0.004307
AU2952   AU        0.498270    0.370572    0.592494     0.007504
AU2953   AU        0.522946    0.377275    0.634913     0.007504
AU2954   AU        0.549175    0.362097    0.592545     0.007504
AU2955   AU        0.524808    0.406334    0.594132     0.007504
NI2956   NI        0.600221    0.352643    0.591915     0.004307
NI2957   NI        0.570301    0.399233    0.612116     0.004307
NI2958   NI        0.604710    0.317570    0.628425     0.004307
NI2959   NI        0.618302    0.409167    0.608130     0.004307
NI2960   NI        0.656656    0.376076    0.597022     0.004307
NI2961   NI        0.667045    0.409043    0.620175     0.004307
NI2962   NI        0.671196    0.345056    0.622791     0.004307
NI2963   NI        0.684618    0.415658    0.575400     0.004307
AU2964   AU        0.715427    0.364082    0.586701     0.007504
AU2965   AU        0.716617    0.418775    0.615181     0.007504
AU2966   AU        0.753036    0.355926    0.614952     0.007504
AU2967   AU        0.754051    0.394417    0.590559     0.007504
AU2968   AU        0.791611    0.347690    0.589812     0.007504
AU2969   AU        0.788810    0.390774    0.615547     0.007504
NI2970   NI        0.817877    0.354864    0.631500     0.004307
NI2971   NI        0.837220    0.365723    0.586461     0.004307
NI2972   NI        0.055562    0.439253    0.628574     0.004307
NI2973   NI        0.048534    0.463331    0.582467     0.004307
NI2974   NI        0.070053    0.424397    0.580709     0.004307
NI2975   NI        0.090922    0.497215    0.629534     0.004307
AU2976   AU        0.100049    0.430536    0.625144     0.007504
AU2977   AU        0.104462    0.455705    0.571756     0.007504
AU2978   AU        0.143554    0.434408    0.588682     0.007504
AU2979   AU        0.130136    0.463418    0.626923     0.007504
AU2980   AU        0.173775    0.441044    0.627476     0.007504
NI2981   NI        0.185806    0.464374    0.585629     0.004307
NI2982   NI        0.210073    0.430979    0.591604     0.004307
NI2983   NI        0.220459    0.463650    0.620290     0.004307
NI2984   NI        0.262242    0.468958    0.618604     0.004307
NI2985   NI        0.244158    0.499751    0.586875     0.004307
NI2986   NI        0.275288    0.459938    0.575009     0.004307
NI2987   NI        0.284739    0.491300    0.645046     0.004307
NI2988   NI        0.319042    0.436444    0.604442     0.004307
NI2989   NI        0.341207    0.472726    0.585227     0.004307
NI2990   NI        0.358899    0.429075    0.595406     0.004307
NI2991   NI        0.362888    0.460504    0.621082     0.004307
NI2992   NI        0.393527    0.416723    0.628618     0.004307
NI2993   NI        0.400660    0.456621    0.602992     0.004307
NI2994   NI        0.431067    0.416673    0.601694     0.004307
AU2995   AU        0.431036    0.453877    0.637253     0.007504
NI2996   NI        0.489445    0.457690    0.628153     0.004307
AU2997   AU        0.450994    0.459798    0.588935     0.007504
AU2998   AU        0.499068    0.448286    0.586212     0.007504
NI2999   NI        0.515569    0.490767    0.631573     0.004307
AU3000   AU        0.537234    0.441390    0.625621     0.007504
AU3001   AU        0.537061    0.481009    0.591117     0.007504
NI3002   NI        0.575773    0.441083    0.592099     0.004307
AU3003   AU        0.573770    0.476327    0.627735     0.007504
NI3004   NI        0.614005    0.457738    0.600703     0.004307
NI3005   NI        0.622350    0.469384    0.556830     0.004307
NI3006   NI        0.652584    0.446922    0.584562     0.004307
NI3007   NI        0.652883    0.472097    0.623768     0.004307
NI3008   NI        0.687872    0.422338    0.656495     0.004307
AU3009   AU        0.691664    0.468103    0.585548     0.007504
AU3010   AU        0.732925    0.438858    0.577075     0.007504
AU3011   AU        0.728370    0.471603    0.621019     0.007504
AU3012   AU        0.761213    0.435427    0.622705     0.007504
NI3013   NI        0.746134    0.481460    0.582614     0.004307
AU3014   AU        0.801881    0.436248    0.590897     0.007504
AU3015   AU        0.779958    0.480584    0.609386     0.007504
NI3016   NI        0.828493    0.406453    0.617268     0.004307
NI3017   NI        0.832469    0.462887    0.552729     0.004307
NI3018   NI        0.044508    0.481380    0.618297     0.004307
NI3019   NI        0.039338    0.529189    0.599947     0.004307
AU3020   AU        0.082278    0.496864    0.588373     0.007504
NI3021   NI        0.077275    0.542886    0.616342     0.004307
AU3022   AU        0.134847    0.505051    0.641116     0.007504
AU3023   AU        0.111031    0.533448    0.585880     0.007504
AU3024   AU        0.135790    0.487638    0.589263     0.007504
AU3025   AU        0.149996    0.532926    0.606501     0.007504
NI3026   NI        0.186632    0.499055    0.606368     0.004307
NI3027   NI        0.186326    0.560504    0.602506     0.004307
NI3028   NI        0.215790    0.532425    0.583861     0.004307
NI3029   NI        0.245009    0.551697    0.619239     0.004307
NI3030   NI        0.238845    0.512323    0.625771     0.004307
NI3031   NI        0.257491    0.543022    0.568604     0.004307
NI3032   NI        0.287694    0.496603    0.597696     0.004307
NI3033   NI        0.302972    0.530756    0.622391     0.004307
NI3034   NI        0.325580    0.491495    0.620508     0.004307
NI3035   NI        0.300467    0.538344    0.570988     0.004307
AU3036   AU        0.386076    0.525091    0.597940     0.007504
NI3037   NI        0.342755    0.537404    0.620437     0.004307
AU3038   AU        0.402017    0.492851    0.635191     0.007504
AU3039   AU        0.419507    0.527392    0.559853     0.007504
AU3040   AU        0.426168    0.497892    0.590285     0.007504
NI3041   NI        0.428595    0.546503    0.610932     0.004307
AU3042   AU        0.459242    0.493269    0.629014     0.007504
NI3043   NI        0.460976    0.527953    0.593849     0.004307
NI3044   NI        0.490330    0.492111    0.592558     0.004307
NI3045   NI        0.487207    0.533081    0.629152     0.004307
AU3046   AU        0.525475    0.528436    0.611482     0.007504
NI3047   NI        0.538962    0.560693    0.584978     0.004307
NI3048   NI        0.588304    0.486154    0.579530     0.004307
AU3049   AU        0.570762    0.518519    0.601400     0.007504
AU3050   AU        0.615714    0.504381    0.618810     0.007504
NI3051   NI        0.622415    0.539806    0.585251     0.004307
AU3052   AU        0.652039    0.499986    0.583158     0.007504
AU3053   AU        0.651330    0.539106    0.619729     0.007504
AU3054   AU        0.688638    0.506643    0.618541     0.007504
AU3055   AU        0.682137    0.542176    0.582749     0.007504
AU3056   AU        0.714870    0.511120    0.579304     0.007504
AU3057   AU        0.721488    0.546401    0.617699     0.007504
NI3058   NI        0.749660    0.510737    0.614245     0.004307
NI3059   NI        0.746140    0.538471    0.574123     0.004307
NI3060   NI        0.782077    0.518599    0.583403     0.004307
NI3061   NI        0.788241    0.586704    0.659822     0.004307
NI3062   NI        0.817057    0.466888    0.626773     0.004307
NI3063   NI        0.819958    0.497823    0.588137     0.004307
NI3064   NI        0.073406    0.581700    0.597011     0.004307
NI3065   NI        0.085688    0.613247    0.622365     0.004307
AU3066   AU        0.116398    0.579465    0.606819     0.007504
AU3067   AU        0.104031    0.617708    0.576164     0.007504
AU3068   AU        0.152306    0.579651    0.578080     0.007504
AU3069   AU        0.159527    0.598077    0.626709     0.007504
AU3070   AU        0.201203    0.577350    0.637936     0.007504
AU3071   AU        0.169506    0.627060    0.587770     0.007504
NI3072   NI        0.226908    0.582999    0.571401     0.004307
AU3073   AU        0.205603    0.617592    0.610288     0.007504
AU3074   AU        0.246230    0.595042    0.617794     0.007504
AU3075   AU        0.246708    0.620907    0.576812     0.007504
NI3076   NI        0.280438    0.577072    0.594322     0.004307
AU3077   AU        0.283318    0.624078    0.616743     0.007504
AU3078   AU        0.320459    0.588530    0.610716     0.007504
NI3079   NI        0.343144    0.599328    0.567664     0.004307
AU3080   AU        0.357250    0.563248    0.588313     0.007504
AU3081   AU        0.364053    0.610543    0.615123     0.007504
AU3082   AU        0.395624    0.574777    0.614619     0.007504
AU3083   AU        0.409357    0.611703    0.586722     0.007504
NI3084   NI        0.451795    0.565641    0.566706     0.004307
NI3085   NI        0.434854    0.612134    0.619407     0.004307
NI3086   NI        0.469823    0.579966    0.615754     0.004307
NI3087   NI        0.456610    0.617339    0.581039     0.004307
NI3088   NI        0.495017    0.565084    0.575866     0.004307
NI3089   NI        0.501822    0.615931    0.628304     0.004307
NI3090   NI        0.522960    0.572910    0.633303     0.004307
NI3091   NI        0.538823    0.602213    0.599258     0.004307
NI3092   NI        0.586920    0.564841    0.588184     0.004307
AU3093   AU        0.574852    0.605314    0.625727     0.007504
NI3094   NI        0.615948    0.577547    0.622761     0.004307
AU3095   AU        0.612852    0.611185    0.594310     0.007504
NI3096   NI        0.649402    0.575221    0.585761     0.004307
AU3097   AU        0.653491    0.614794    0.618297     0.007504
AU3098   AU        0.688111    0.577185    0.619497     0.007504
AU3099   AU        0.681585    0.619347    0.577356     0.007504
AU3100   AU        0.713236    0.580267    0.581715     0.007504
AU3101   AU        0.710575    0.619312    0.618839     0.007504
AU3102   AU        0.763172    0.567073    0.597537     0.007504
AU3103   AU        0.748806    0.612637    0.586171     0.007504
AU3104   AU        0.785097    0.594580    0.558728     0.007504
NI3105   NI        0.793901    0.636091    0.581639     0.004307
NI3106   NI        0.092658    0.655340    0.605751     0.004307
NI3107   NI        0.131967    0.692484    0.603547     0.004307
AU3108   AU        0.134787    0.656684    0.579467     0.007504
NI3109   NI        0.134149    0.663640    0.639796     0.004307
AU3110   AU        0.183324    0.658802    0.626362     0.007504
AU3111   AU        0.175991    0.689370    0.590320     0.007504
AU3112   AU        0.213326    0.657768    0.584135     0.007504
AU3113   AU        0.215830    0.689898    0.625201     0.007504
AU3114   AU        0.245062    0.650811    0.617122     0.007504
AU3115   AU        0.250679    0.690322    0.589954     0.007504
NI3116   NI        0.283773    0.646975    0.581057     0.004307
AU3117   AU        0.290939    0.673937    0.613602     0.007504
AU3118   AU        0.323528    0.639759    0.612385     0.007504
AU3119   AU        0.327525    0.685733    0.591134     0.007504
NI3120   NI        0.367759    0.640247    0.578197     0.004307
NI3121   NI        0.362228    0.684299    0.618505     0.004307
AU3122   AU        0.398428    0.649935    0.618082     0.007504
NI3123   NI        0.397373    0.687076    0.587499     0.004307
AU3124   AU        0.432820    0.656047    0.580156     0.007504
AU3125   AU        0.433021    0.688471    0.618071     0.007504
AU3126   AU        0.466360    0.649917    0.618131     0.007504
AU3127   AU        0.473242    0.686921    0.581776     0.007504
NI3128   NI        0.517914    0.640210    0.583378     0.004307
AU3129   AU        0.507849    0.682012    0.618643     0.007504
AU3130   AU        0.539857    0.647198    0.624156     0.007504
AU3131   AU        0.545330    0.679511    0.582262     0.007504
AU3132   AU        0.583234    0.648706    0.605698     0.007504
AU3133   AU        0.595318    0.694595    0.611221     0.007504
AU3134   AU        0.627077    0.654898    0.617403     0.007504
AU3135   AU        0.620788    0.693527    0.553831     0.007504
AU3136   AU        0.644059    0.652962    0.569239     0.007504
AU3137   AU        0.644645    0.692738    0.600780     0.007504
AU3138   AU        0.676600    0.655769    0.611417     0.007504
AU3139   AU        0.693967    0.692995    0.597813     0.007504
AU3140   AU        0.718552    0.652964    0.579574     0.007504
NI3141   NI        0.725425    0.661167    0.626368     0.004307
NI3142   NI        0.761739    0.640887    0.619753     0.004307
NI3143   NI        0.760891    0.678637    0.581105     0.004307
NI3144   NI        0.145005    0.729390    0.589513     0.004307
NI3145   NI        0.185224    0.730869    0.621976     0.004307
NI3146   NI        0.193458    0.760277    0.592253     0.004307
AU3147   AU        0.215773    0.717230    0.587548     0.007504
NI3148   NI        0.218724    0.809539    0.560941     0.004307
AU3149   AU        0.243552    0.727453    0.630591     0.007504
AU3150   AU        0.244428    0.752963    0.589086     0.007504
AU3151   AU        0.290113    0.721901    0.589247     0.007504
AU3152   AU        0.282041    0.757453    0.622004     0.007504
AU3153   AU        0.315518    0.718192    0.624056     0.007504
AU3154   AU        0.321891    0.758270    0.593365     0.007504
AU3155   AU        0.357188    0.721642    0.594330     0.007504
AU3156   AU        0.360725    0.763148    0.622031     0.007504
AU3157   AU        0.396683    0.723546    0.621293     0.007504
AU3158   AU        0.398119    0.752219    0.589724     0.007504
AU3159   AU        0.439673    0.717886    0.583315     0.007504
AU3160   AU        0.439831    0.749759    0.617267     0.007504
AU3161   AU        0.473046    0.719413    0.621077     0.007504
AU3162   AU        0.476118    0.752587    0.583835     0.007504
AU3163   AU        0.511892    0.718490    0.585042     0.007504
AU3164   AU        0.510802    0.751704    0.622670     0.007504
AU3165   AU        0.549138    0.712305    0.619892     0.007504
AU3166   AU        0.550429    0.752357    0.592388     0.007504
AU3167   AU        0.579643    0.713139    0.568842     0.007504
AU3168   AU        0.588196    0.745033    0.625196     0.007504
AU3169   AU        0.622946    0.729979    0.594548     0.007504
NI3170   NI        0.652893    0.769554    0.582524     0.004307
AU3171   AU        0.662649    0.722160    0.562776     0.007504
NI3172   NI        0.630161    0.763781    0.626155     0.004307
NI3173   NI        0.668622    0.735528    0.608462     0.004307
NI3174   NI        0.701095    0.740442    0.570863     0.004307
NI3175   NI        0.735942    0.715122    0.572005     0.004307
NI3176   NI        0.283099    0.793472    0.658395     0.004307
NI3177   NI        0.283037    0.782798    0.588158     0.004307
NI3178   NI        0.322005    0.796760    0.625729     0.004307
NI3179   NI        0.307842    0.844494    0.562326     0.004307
AU3180   AU        0.354671    0.798033    0.587052     0.007504
NI3181   NI        0.349590    0.830723    0.612728     0.004307
AU3182   AU        0.396933    0.795007    0.614657     0.007504
NI3183   NI        0.351239    0.831869    0.561754     0.004307
AU3184   AU        0.440620    0.785245    0.590946     0.007504
NI3185   NI        0.427533    0.827186    0.587110     0.004307
NI3186   NI        0.459604    0.814144    0.618472     0.004307
NI3187   NI        0.477107    0.808785    0.576539     0.004307
NI3188   NI        0.509695    0.786022    0.593320     0.004307
NI3189   NI        0.502780    0.805361    0.629884     0.004307
AU3190   AU        0.545427    0.788512    0.621852     0.007504
NI3191   NI        0.594636    0.794207    0.628813     0.004307
NI3192   NI        0.584138    0.776072    0.584282     0.004307
NI3193   NI        0.600598    0.777991    0.670636     0.004307
NI3194   NI        0.231834    0.111313    0.673139     0.004307
NI3195   NI        0.286250    0.097837    0.698599     0.004307
NI3196   NI        0.306770    0.114721    0.663293     0.004307
NI3197   NI        0.333890    0.078034    0.654425     0.004307
NI3198   NI        0.323904    0.119355    0.702947     0.004307
NI3199   NI        0.382636    0.069935    0.660949     0.004307
AU3200   AU        0.401592    0.111192    0.662272     0.007504
NI3201   NI        0.463458    0.099200    0.712150     0.004307
NI3202   NI        0.442505    0.116867    0.680461     0.004307
NI3203   NI        0.498297    0.033984    0.701741     0.004307
AU3204   AU        0.473598    0.124096    0.650893     0.007504
NI3205   NI        0.486675    0.084089    0.667674     0.004307
NI3206   NI        0.506045    0.138182    0.692927     0.004307
AU3207   AU        0.523533    0.109197    0.665867     0.007504
NI3208   NI        0.539995    0.111338    0.710005     0.004307
NI3209   NI        0.584549    0.079752    0.640150     0.004307
NI3210   NI        0.187224    0.188650    0.661453     0.004307
NI3211   NI        0.244530    0.139049    0.644556     0.004307
NI3212   NI        0.219219    0.162412    0.671265     0.004307
NI3213   NI        0.235960    0.143003    0.715310     0.004307
AU3214   AU        0.261267    0.177431    0.656492     0.007504
NI3215   NI        0.271337    0.138333    0.687250     0.004307
NI3216   NI        0.279894    0.174318    0.707377     0.004307
NI3217   NI        0.317033    0.154240    0.730461     0.004307
AU3218   AU        0.313558    0.163941    0.678345     0.007504
AU3219   AU        0.355523    0.140230    0.656098     0.007504
AU3220   AU        0.346661    0.190998    0.674966     0.007504
AU3221   AU        0.406370    0.147321    0.700586     0.007504
AU3222   AU        0.389612    0.176485    0.665790     0.007504
AU3223   AU        0.431698    0.151508    0.657054     0.007504
AU3224   AU        0.431962    0.190108    0.688478     0.007504
AU3225   AU        0.468769    0.155775    0.688770     0.007504
AU3226   AU        0.467207    0.188387    0.653806     0.007504
AU3227   AU        0.503629    0.155075    0.651981     0.007504
AU3228   AU        0.508686    0.188669    0.682601     0.007504
AU3229   AU        0.546237    0.156893    0.682528     0.007504
AU3230   AU        0.540539    0.188781    0.645670     0.007504
AU3231   AU        0.571101    0.121434    0.659529     0.007504
AU3232   AU        0.590229    0.183772    0.689773     0.007504
NI3233   NI        0.609761    0.112388    0.687535     0.004307
AU3234   AU        0.620718    0.195013    0.657455     0.007504
NI3235   NI        0.612155    0.149942    0.670012     0.004307
NI3236   NI        0.643456    0.174051    0.704044     0.004307
NI3237   NI        0.687773    0.175771    0.666882     0.004307
NI3238   NI        0.134915    0.263853    0.671392     0.004307
NI3239   NI        0.144436    0.207603    0.652167     0.004307
NI3240   NI        0.167773    0.248397    0.709831     0.004307
NI3241   NI        0.195346    0.209787    0.704714     0.004307
AU3242   AU        0.181187    0.238313    0.664193     0.007504
AU3243   AU        0.227932    0.214229    0.668841     0.007504
AU3244   AU        0.208711    0.251430    0.699374     0.007504
AU3245   AU        0.277856    0.212816    0.684083     0.007504
AU3246   AU        0.249441    0.252932    0.670634     0.007504
AU3247   AU        0.307253    0.198545    0.640814     0.007504
AU3248   AU        0.285140    0.260178    0.699228     0.007504
AU3249   AU        0.324766    0.235488    0.688630     0.007504
AU3250   AU        0.297003    0.246572    0.654310     0.007504
NI3251   NI        0.385511    0.224179    0.639087     0.004307
AU3252   AU        0.365676    0.262971    0.673244     0.007504
AU3253   AU        0.399766    0.226048    0.683837     0.007504
NI3254   NI        0.403871    0.265890    0.649157     0.004307
NI3255   NI        0.440130    0.228358    0.649320     0.004307
NI3256   NI        0.435602    0.260123    0.688235     0.004307
AU3257   AU        0.476569    0.214005    0.697682     0.007504
AU3258   AU        0.480362    0.256155    0.666513     0.007504
AU3259   AU        0.505740    0.221142    0.655121     0.007504
AU3260   AU        0.519326    0.240682    0.699743     0.007504
AU3261   AU        0.549919    0.205077    0.684281     0.007504
AU3262   AU        0.560215    0.262957    0.655386     0.007504
AU3263   AU        0.579178    0.215297    0.639672     0.007504
AU3264   AU        0.577882    0.236915    0.692655     0.007504
AU3265   AU        0.623071    0.220835    0.697471     0.007504
AU3266   AU        0.611806    0.245800    0.658118     0.007504
AU3267   AU        0.663316    0.218955    0.665482     0.007504
AU3268   AU        0.652518    0.262234    0.684477     0.007504
NI3269   NI        0.708832    0.209910    0.681958     0.004307
AU3270   AU        0.696118    0.255928    0.667086     0.007504
NI3271   NI        0.745480    0.240909    0.672474     0.004307
NI3272   NI        0.728644    0.266076    0.701569     0.004307
NI3273   NI        0.763418    0.288446    0.672944     0.004307
NI3274   NI        0.094294    0.295093    0.671995     0.004307
AU3275   AU        0.137057    0.310744    0.667056     0.007504
AU3276   AU        0.164351    0.283361    0.643021     0.007504
NI3277   NI        0.131892    0.299081    0.713143     0.004307
AU3278   AU        0.172353    0.285965    0.687645     0.007504
AU3279   AU        0.188549    0.326986    0.659293     0.007504
AU3280   AU        0.211058    0.277623    0.656495     0.007504
AU3281   AU        0.221651    0.344647    0.690953     0.007504
AU3282   AU        0.246816    0.297531    0.690931     0.007504
NI3283   NI        0.242021    0.325334    0.658114     0.004307
NI3284   NI        0.284851    0.296799    0.662516     0.004307
NI3285   NI        0.288107    0.333721    0.684463     0.004307
AU3286   AU        0.322212    0.288123    0.681836     0.007504
NI3287   NI        0.336518    0.326262    0.652239     0.004307
AU3288   AU        0.370466    0.298727    0.639208     0.007504
NI3289   NI        0.361286    0.321488    0.686222     0.004307
NI3290   NI        0.400549    0.291900    0.686967     0.004307
NI3291   NI        0.396601    0.337156    0.665591     0.004307
NI3292   NI        0.443748    0.276689    0.641567     0.004307
NI3293   NI        0.443815    0.352516    0.697525     0.004307
NI3294   NI        0.441685    0.304425    0.695057     0.004307
NI3295   NI        0.442711    0.320005    0.655950     0.004307
AU3296   AU        0.520670    0.287173    0.676560     0.007504
NI3297   NI        0.484753    0.321072    0.684434     0.004307
AU3298   AU        0.557212    0.274521    0.707731     0.007504
NI3299   NI        0.558195    0.309861    0.651959     0.004307
AU3300   AU        0.592401    0.289690    0.679543     0.007504
NI3301   NI        0.549167    0.315253    0.690903     0.004307
AU3302   AU        0.611205    0.266321    0.718030     0.007504
NI3303   NI        0.602608    0.348571    0.662058     0.004307
AU3304   AU        0.667130    0.297465    0.659159     0.007504
AU3305   AU        0.632926    0.307610    0.698736     0.007504
AU3306   AU        0.689304    0.295607    0.697714     0.007504
AU3307   AU        0.700831    0.335785    0.668263     0.007504
AU3308   AU        0.718485    0.292668    0.655288     0.007504
AU3309   AU        0.732168    0.318726    0.701161     0.007504
NI3310   NI        0.785145    0.263672    0.706876     0.004307
AU3311   AU        0.747579    0.327499    0.654453     0.007504
NI3312   NI        0.062900    0.377234    0.663493     0.004307
NI3313   NI        0.082829    0.390443    0.707498     0.004307
NI3314   NI        0.118802    0.341269    0.692467     0.004307
AU3315   AU        0.101887    0.395270    0.660358     0.007504
AU3316   AU        0.138953    0.363918    0.660739     0.007504
AU3317   AU        0.137282    0.397250    0.701101     0.007504
AU3318   AU        0.177583    0.363465    0.684897     0.007504
AU3319   AU        0.177082    0.404262    0.662018     0.007504
AU3320   AU        0.214876    0.367861    0.649070     0.007504
AU3321   AU        0.214663    0.398980    0.695310     0.007504
AU3322   AU        0.254836    0.370357    0.682790     0.007504
NI3323   NI        0.258874    0.397046    0.646802     0.004307
NI3324   NI        0.297047    0.364947    0.650152     0.004307
AU3325   AU        0.291191    0.390848    0.688672     0.007504
NI3326   NI        0.326171    0.356035    0.690089     0.004307
NI3327   NI        0.303261    0.411537    0.642971     0.004307
NI3328   NI        0.351461    0.367671    0.631713     0.004307
NI3329   NI        0.340938    0.396249    0.664419     0.004307
NI3330   NI        0.369319    0.376092    0.693158     0.004307
NI3331   NI        0.388301    0.379713    0.652247     0.004307
NI3332   NI        0.434338    0.366333    0.657496     0.004307
NI3333   NI        0.457441    0.406744    0.677900     0.004307
NI3334   NI        0.498029    0.370328    0.669371     0.004307
NI3335   NI        0.466391    0.423748    0.638305     0.004307
NI3336   NI        0.517235    0.331332    0.658889     0.004307
NI3337   NI        0.512564    0.387384    0.704799     0.004307
NI3338   NI        0.565999    0.356252    0.709333     0.004307
NI3339   NI        0.540984    0.371813    0.673923     0.004307
NI3340   NI        0.562623    0.350112    0.630633     0.004307
NI3341   NI        0.573092    0.397662    0.681678     0.004307
AU3342   AU        0.617526    0.353800    0.709659     0.007504
NI3343   NI        0.615390    0.390004    0.672281     0.004307
NI3344   NI        0.661471    0.345931    0.687531     0.004307
AU3345   AU        0.661527    0.409309    0.698947     0.007504
AU3346   AU        0.702554    0.358898    0.708439     0.007504
NI3347   NI        0.658442    0.384433    0.653243     0.004307
AU3348   AU        0.703836    0.373665    0.633603     0.007504
AU3349   AU        0.724167    0.401286    0.689258     0.007504
AU3350   AU        0.745730    0.357971    0.686555     0.007504
AU3351   AU        0.746208    0.394489    0.642813     0.007504
AU3352   AU        0.779288    0.356894    0.652934     0.007504
NI3353   NI        0.795782    0.397588    0.700520     0.004307
NI3354   NI        0.050181    0.477124    0.671257     0.004307
NI3355   NI        0.103270    0.465874    0.737420     0.004307
NI3356   NI        0.106317    0.431893    0.703650     0.004307
NI3357   NI        0.103060    0.458828    0.667641     0.004307
AU3358   AU        0.136959    0.432753    0.664608     0.007504
AU3359   AU        0.139511    0.459870    0.705303     0.007504
AU3360   AU        0.174565    0.432712    0.702113     0.007504
AU3361   AU        0.196217    0.490291    0.654667     0.007504
AU3362   AU        0.209945    0.442873    0.664747     0.007504
AU3363   AU        0.198535    0.475784    0.701138     0.007504
AU3364   AU        0.253023    0.426097    0.686102     0.007504
NI3365   NI        0.247845    0.470983    0.658868     0.004307
NI3366   NI        0.278297    0.442668    0.653433     0.004307
NI3367   NI        0.297932    0.458257    0.685817     0.004307
NI3368   NI        0.325029    0.424311    0.691689     0.004307
NI3369   NI        0.331159    0.459720    0.653020     0.004307
NI3370   NI        0.340387    0.405614    0.622892     0.004307
NI3371   NI        0.356645    0.459348    0.692159     0.004307
NI3372   NI        0.374283    0.419923    0.678118     0.004307
AU3373   AU        0.385972    0.457125    0.662663     0.007504
NI3374   NI        0.427153    0.437968    0.682652     0.004307
NI3375   NI        0.431946    0.493132    0.670246     0.004307
NI3376   NI        0.485317    0.429489    0.697421     0.004307
NI3377   NI        0.462162    0.461304    0.669110     0.004307
NI3378   NI        0.507067    0.422038    0.653165     0.004307
NI3379   NI        0.501430    0.472827    0.688010     0.004307
AU3380   AU        0.537526    0.434560    0.682314     0.007504
AU3381   AU        0.537747    0.476667    0.664876     0.007504
NI3382   NI        0.577330    0.427361    0.646157     0.004307
AU3383   AU        0.579972    0.463766    0.685527     0.007504
AU3384   AU        0.612631    0.431771    0.696094     0.007504
AU3385   AU        0.616519    0.465873    0.649453     0.007504
NI3386   NI        0.633982    0.428223    0.650795     0.004307
AU3387   AU        0.654133    0.457469    0.685345     0.007504
AU3388   AU        0.698436    0.442925    0.702379     0.007504
AU3389   AU        0.690666    0.478549    0.658837     0.007504
AU3390   AU        0.725135    0.443945    0.657876     0.007504
AU3391   AU        0.726163    0.481568    0.691683     0.007504
NI3392   NI        0.767897    0.430523    0.675105     0.004307
AU3393   AU        0.766000    0.474689    0.658366     0.007504
NI3394   NI        0.796043    0.403073    0.656272     0.004307
NI3395   NI        0.767448    0.475216    0.712631     0.004307
NI3396   NI        0.096476    0.496460    0.682498     0.004307
NI3397   NI        0.090184    0.531796    0.707610     0.004307
NI3398   NI        0.120180    0.546138    0.639204     0.004307
NI3399   NI        0.119093    0.532131    0.677499     0.004307
AU3400   AU        0.194197    0.531786    0.701701     0.007504
AU3401   AU        0.156175    0.501738    0.684192     0.007504
AU3402   AU        0.167256    0.543724    0.654989     0.007504
AU3403   AU        0.216147    0.538186    0.659897     0.007504
AU3404   AU        0.241317    0.549680    0.703052     0.007504
AU3405   AU        0.233038    0.502692    0.685888     0.007504
NI3406   NI        0.269208    0.529779    0.656081     0.004307
NI3407   NI        0.287872    0.507597    0.686304     0.004307
AU3408   AU        0.287803    0.556100    0.685692     0.007504
NI3409   NI        0.330232    0.493719    0.690237     0.004307
NI3410   NI        0.319080    0.525510    0.658947     0.004307
AU3411   AU        0.359068    0.499137    0.647516     0.007504
AU3412   AU        0.361815    0.534434    0.683252     0.007504
AU3413   AU        0.392990    0.503674    0.684722     0.007504
AU3414   AU        0.397200    0.536253    0.646541     0.007504
NI3415   NI        0.442615    0.528223    0.649221     0.004307
AU3416   AU        0.426661    0.541490    0.688899     0.007504
NI3417   NI        0.461017    0.511865    0.698089     0.004307
NI3418   NI        0.474095    0.552451    0.662850     0.004307
NI3419   NI        0.491572    0.510796    0.664477     0.004307
NI3420   NI        0.501312    0.550203    0.693809     0.004307
NI3421   NI        0.536401    0.509224    0.691879     0.004307
AU3422   AU        0.565501    0.553151    0.633981     0.007504
NI3423   NI        0.553454    0.514912    0.649938     0.004307
AU3424   AU        0.573371    0.543009    0.685260     0.007504
AU3425   AU        0.608693    0.506137    0.679693     0.007504
AU3426   AU        0.612934    0.543383    0.650458     0.007504
AU3427   AU        0.652183    0.502282    0.655605     0.007504
AU3428   AU        0.647969    0.541819    0.688504     0.007504
AU3429   AU        0.685840    0.511408    0.695783     0.007504
AU3430   AU        0.687237    0.541303    0.654627     0.007504
AU3431   AU        0.728151    0.510219    0.651711     0.007504
AU3432   AU        0.721791    0.540343    0.693351     0.007504
AU3433   AU        0.765655    0.516566    0.682349     0.007504
AU3434   AU        0.759970    0.547976    0.644116     0.007504
NI3435   NI        0.792493    0.513111    0.633664     0.004307
NI3436   NI        0.122394    0.566928    0.702843     0.004307
NI3437   NI        0.124970    0.622909    0.618479     0.004307
NI3438   NI        0.153417    0.584544    0.677937     0.004307
NI3439   NI        0.177309    0.610675    0.704420     0.004307
AU3440   AU        0.200354    0.576291    0.689978     0.007504
AU3441   AU        0.188369    0.619644    0.659676     0.007504
AU3442   AU        0.242598    0.578587    0.664625     0.007504
AU3443   AU        0.224771    0.620537    0.695371     0.007504
AU3444   AU        0.262966    0.591697    0.707868     0.007504
AU3445   AU        0.265067    0.615021    0.660332     0.007504
AU3446   AU        0.290278    0.575164    0.638772     0.007504
AU3447   AU        0.302807    0.614149    0.693314     0.007504
AU3448   AU        0.327791    0.571193    0.685331     0.007504
AU3449   AU        0.328753    0.610032    0.653548     0.007504
AU3450   AU        0.361290    0.570111    0.647203     0.007504
AU3451   AU        0.358628    0.609279    0.687194     0.007504
AU3452   AU        0.391194    0.572088    0.684702     0.007504
AU3453   AU        0.395390    0.610883    0.651716     0.007504
AU3454   AU        0.430917    0.576210    0.652590     0.007504
AU3455   AU        0.424895    0.614348    0.688903     0.007504
AU3456   AU        0.459247    0.581811    0.691430     0.007504
AU3457   AU        0.461872    0.616819    0.657212     0.007504
NI3458   NI        0.496865    0.588015    0.661358     0.004307
AU3459   AU        0.493329    0.620057    0.696712     0.007504
NI3460   NI        0.531506    0.580480    0.696887     0.004307
AU3461   AU        0.538925    0.617352    0.661907     0.007504
NI3462   NI        0.573972    0.588577    0.670449     0.004307
AU3463   AU        0.572349    0.630604    0.701041     0.007504
AU3464   AU        0.612502    0.576930    0.688889     0.007504
AU3465   AU        0.615012    0.616685    0.655748     0.007504
AU3466   AU        0.648656    0.577564    0.653134     0.007504
AU3467   AU        0.650485    0.613772    0.690089     0.007504
AU3468   AU        0.685664    0.574304    0.693034     0.007504
AU3469   AU        0.685287    0.612952    0.657398     0.007504
AU3470   AU        0.723264    0.578023    0.657336     0.007504
NI3471   NI        0.725862    0.627487    0.671188     0.004307
NI3472   NI        0.760760    0.564994    0.697772     0.004307
NI3473   NI        0.753240    0.600333    0.635113     0.004307
NI3474   NI        0.137868    0.622943    0.656804     0.004307
NI3475   NI        0.172566    0.657855    0.682581     0.004307
NI3476   NI        0.173932    0.694158    0.649058     0.004307
AU3477   AU        0.230178    0.654847    0.658179     0.007504
NI3478   NI        0.212374    0.664646    0.702261     0.004307
AU3479   AU        0.266884    0.649958    0.689697     0.007504
AU3480   AU        0.265994    0.686615    0.652976     0.007504
AU3481   AU        0.303128    0.649444    0.655882     0.007504
AU3482   AU        0.296507    0.689096    0.692533     0.007504
AU3483   AU        0.334472    0.649839    0.688936     0.007504
AU3484   AU        0.329469    0.686425    0.654164     0.007504
AU3485   AU        0.359391    0.647131    0.649316     0.007504
AU3486   AU        0.359439    0.687489    0.685236     0.007504
AU3487   AU        0.388560    0.648378    0.684786     0.007504
AU3488   AU        0.393446    0.687645    0.650717     0.007504
AU3489   AU        0.425312    0.650667    0.652837     0.007504
AU3490   AU        0.424086    0.685912    0.685222     0.007504
AU3491   AU        0.459871    0.653618    0.692124     0.007504
AU3492   AU        0.466443    0.686312    0.655304     0.007504
AU3493   AU        0.499473    0.650339    0.657427     0.007504
AU3494   AU        0.500093    0.685618    0.695582     0.007504
AU3495   AU        0.526092    0.650375    0.698892     0.007504
AU3496   AU        0.540072    0.681086    0.658453     0.007504
AU3497   AU        0.578173    0.648948    0.654749     0.007504
AU3498   AU        0.573277    0.677371    0.697856     0.007504
AU3499   AU        0.617180    0.653334    0.686035     0.007504
AU3500   AU        0.626570    0.692760    0.652085     0.007504
AU3501   AU        0.653964    0.648566    0.656518     0.007504
NI3502   NI        0.654604    0.688254    0.687818     0.004307
NI3503   NI        0.689391    0.636188    0.702137     0.004307
AU3504   AU        0.673829    0.695711    0.642268     0.007504
NI3505   NI        0.696607    0.668891    0.672154     0.004307
NI3506   NI        0.225922    0.697805    0.676864     0.004307
NI3507   NI        0.282877    0.767318    0.692913     0.004307
NI3508   NI        0.204941    0.732699    0.660473     0.004307
AU3509   AU        0.283489    0.732521    0.663755     0.007504
NI3510   NI        0.323523    0.793822    0.683465     0.004307
AU3511   AU        0.330894    0.727363    0.683403     0.007504
AU3512   AU        0.323378    0.758093    0.645730     0.007504
AU3513   AU        0.358291    0.725363    0.647819     0.007504
AU3514   AU        0.362626    0.763035    0.682024     0.007504
AU3515   AU        0.392670    0.724679    0.684270     0.007504
AU3516   AU        0.396482    0.760660    0.651631     0.007504
AU3517   AU        0.433962    0.724212    0.653896     0.007504
AU3518   AU        0.433703    0.759321    0.685893     0.007504
AU3519   AU        0.458767    0.716688    0.697435     0.007504
AU3520   AU        0.472707    0.750727    0.657226     0.007504
AU3521   AU        0.507904    0.717327    0.657126     0.007504
AU3522   AU        0.497207    0.738942    0.698903     0.007504
AU3523   AU        0.543304    0.716439    0.693967     0.007504
AU3524   AU        0.548594    0.746931    0.654617     0.007504
AU3525   AU        0.584063    0.705942    0.656599     0.007504
NI3526   NI        0.539589    0.765532    0.708012     0.004307
NI3527   NI        0.613598    0.697796    0.693408     0.004307
NI3528   NI        0.615916    0.736638    0.680432     0.004307
NI3529   NI        0.655325    0.742235    0.657687     0.004307
NI3530   NI        0.368224    0.801025    0.656904     0.004307
NI3531   NI        0.402905    0.798083    0.680532     0.004307
AU3532   AU        0.438438    0.784847    0.643800     0.007504
NI3533   NI        0.468747    0.792276    0.686556     0.004307
NI3534   NI        0.512614    0.779101    0.666979     0.004307
NI3535   NI        0.403575    0.094341    0.708619     0.004307
NI3536   NI        0.490709    0.119531    0.737529     0.004307
NI3537   NI        0.256621    0.186852    0.743487     0.004307
NI3538   NI        0.273485    0.139258    0.732227     0.004307
NI3539   NI        0.303294    0.199426    0.768868     0.004307
AU3540   AU        0.320993    0.196384    0.716710     0.007504
AU3541   AU        0.356292    0.158239    0.703838     0.007504
NI3542   NI        0.359106    0.185098    0.742426     0.004307
NI3543   NI        0.399252    0.174305    0.759430     0.004307
AU3544   AU        0.393879    0.191830    0.717977     0.007504
NI3545   NI        0.423797    0.126232    0.733912     0.004307
AU3546   AU        0.437839    0.175104    0.729584     0.007504
NI3547   NI        0.506535    0.168900    0.769831     0.004307
NI3548   NI        0.486587    0.166888    0.727420     0.004307
NI3549   NI        0.526628    0.156933    0.726845     0.004307
NI3550   NI        0.464604    0.173144    0.773367     0.004307
AU3551   AU        0.565138    0.188876    0.732922     0.007504
NI3552   NI        0.581894    0.142068    0.712586     0.004307
NI3553   NI        0.541218    0.197939    0.772990     0.004307
NI3554   NI        0.607321    0.175390    0.736023     0.004307
NI3555   NI        0.194772    0.252631    0.748237     0.004307
NI3556   NI        0.240302    0.221118    0.716226     0.004307
NI3557   NI        0.220693    0.206420    0.763717     0.004307
NI3558   NI        0.252270    0.235688    0.757251     0.004307
AU3559   AU        0.246493    0.265223    0.724316     0.007504
AU3560   AU        0.286988    0.228192    0.732543     0.007504
NI3561   NI        0.299521    0.252007    0.776484     0.004307
NI3562   NI        0.332263    0.225257    0.753563     0.004307
AU3563   AU        0.321595    0.260343    0.727259     0.007504
AU3564   AU        0.360329    0.226904    0.713383     0.007504
AU3565   AU        0.363939    0.263504    0.750965     0.007504
NI3566   NI        0.387679    0.217953    0.758066     0.004307
AU3567   AU        0.400274    0.257172    0.724784     0.007504
AU3568   AU        0.435476    0.224990    0.724254     0.007504
AU3569   AU        0.464211    0.249875    0.765171     0.007504
AU3570   AU        0.475567    0.208675    0.741134     0.007504
AU3571   AU        0.475586    0.254245    0.718498     0.007504
AU3572   AU        0.521527    0.201008    0.728284     0.007504
AU3573   AU        0.509304    0.244331    0.749606     0.007504
NI3574   NI        0.525956    0.246148    0.798934     0.004307
AU3575   AU        0.551452    0.239461    0.739707     0.007504
AU3576   AU        0.600578    0.223609    0.739947     0.007504
NI3577   NI        0.573421    0.251558    0.791501     0.004307
NI3578   NI        0.642984    0.210096    0.770483     0.004307
AU3579   AU        0.631456    0.258006    0.762526     0.007504
NI3580   NI        0.648569    0.233450    0.727493     0.004307
NI3581   NI        0.700019    0.280419    0.752044     0.004307
NI3582   NI        0.689511    0.249619    0.717075     0.004307
NI3583   NI        0.194015    0.320251    0.747655     0.004307
NI3584   NI        0.202781    0.314468    0.789062     0.004307
NI3585   NI        0.175614    0.325875    0.710014     0.004307
NI3586   NI        0.210088    0.294497    0.714271     0.004307
NI3587   NI        0.228249    0.362884    0.808861     0.004307
NI3588   NI        0.221223    0.284735    0.764570     0.004307
AU3589   AU        0.245139    0.317224    0.736278     0.007504
AU3590   AU        0.287279    0.297162    0.721624     0.007504
AU3591   AU        0.284829    0.321040    0.760341     0.007504
AU3592   AU        0.322583    0.287954    0.760293     0.007504
AU3593   AU        0.324489    0.322376    0.720751     0.007504
AU3594   AU        0.360051    0.290477    0.715488     0.007504
AU3595   AU        0.362379    0.317198    0.755275     0.007504
AU3596   AU        0.401182    0.291776    0.764818     0.007504
AU3597   AU        0.400420    0.320158    0.725202     0.007504
AU3598   AU        0.439628    0.284586    0.737863     0.007504
AU3599   AU        0.427932    0.326414    0.766229     0.007504
AU3600   AU        0.485710    0.287622    0.762070     0.007504
AU3601   AU        0.471442    0.325438    0.733251     0.007504
AU3602   AU        0.512606    0.288701    0.724048     0.007504
AU3603   AU        0.514226    0.326349    0.757394     0.007504
AU3604   AU        0.536721    0.281978    0.766296     0.007504
AU3605   AU        0.555565    0.314870    0.735030     0.007504
AU3606   AU        0.582353    0.272384    0.754849     0.007504
AU3607   AU        0.557748    0.324963    0.784604     0.007504
AU3608   AU        0.608434    0.313829    0.777651     0.007504
AU3609   AU        0.638276    0.327519    0.743409     0.007504
AU3610   AU        0.656435    0.281701    0.731352     0.007504
NI3611   NI        0.680045    0.342466    0.788205     0.004307
NI3612   NI        0.661406    0.299942    0.777082     0.004307
AU3613   AU        0.687919    0.323294    0.741607     0.007504
NI3614   NI        0.757384    0.304277    0.736345     0.004307
NI3615   NI        0.116271    0.365376    0.730604     0.004307
NI3616   NI        0.161605    0.356193    0.746945     0.004307
NI3617   NI        0.160798    0.388546    0.778393     0.004307
NI3618   NI        0.194864    0.357582    0.777390     0.004307
AU3619   AU        0.181178    0.405040    0.735185     0.007504
AU3620   AU        0.209674    0.360977    0.728611     0.007504
AU3621   AU        0.224415    0.398887    0.762093     0.007504
AU3622   AU        0.250107    0.355345    0.757595     0.007504
AU3623   AU        0.252925    0.391721    0.723403     0.007504
AU3624   AU        0.287250    0.355198    0.723400     0.007504
AU3625   AU        0.287715    0.385921    0.755821     0.007504
AU3626   AU        0.323345    0.352701    0.760857     0.007504
AU3627   AU        0.324180    0.390710    0.725805     0.007504
NI3628   NI        0.362591    0.360829    0.731768     0.004307
AU3629   AU        0.352198    0.393189    0.766785     0.007504
AU3630   AU        0.396339    0.366625    0.761679     0.007504
NI3631   NI        0.409534    0.399335    0.717582     0.004307
NI3632   NI        0.442213    0.361021    0.737043     0.004307
NI3633   NI        0.438612    0.402445    0.752280     0.004307
NI3634   NI        0.489383    0.370172    0.746733     0.004307
NI3635   NI        0.464412    0.393677    0.718856     0.004307
NI3636   NI        0.514537    0.336235    0.713660     0.004307
AU3637   AU        0.513694    0.395101    0.771074     0.007504
AU3638   AU        0.547686    0.364358    0.767358     0.007504
NI3639   NI        0.544004    0.392454    0.732873     0.004307
AU3640   AU        0.589721    0.347195    0.747186     0.007504
AU3641   AU        0.585728    0.395995    0.760873     0.007504
AU3642   AU        0.631533    0.367432    0.760669     0.007504
NI3643   NI        0.619400    0.394822    0.723567     0.004307
AU3644   AU        0.662969    0.369093    0.728489     0.007504
AU3645   AU        0.624176    0.409549    0.780133     0.007504
NI3646   NI        0.733474    0.329944    0.769459     0.004307
AU3647   AU        0.700041    0.399461    0.730834     0.007504
NI3648   NI        0.745456    0.357958    0.729840     0.004307
NI3649   NI        0.719137    0.379002    0.763710     0.004307
NI3650   NI        0.755891    0.401042    0.714551     0.004307
NI3651   NI        0.119835    0.504875    0.718270     0.004307
NI3652   NI        0.140318    0.431078    0.740410     0.004307
NI3653   NI        0.140442    0.478842    0.753099     0.004307
AU3654   AU        0.176135    0.454767    0.745411     0.007504
NI3655   NI        0.182654    0.506136    0.734389     0.004307
AU3656   AU        0.221204    0.436423    0.728982     0.007504
AU3657   AU        0.243320    0.473819    0.759470     0.007504
AU3658   AU        0.260822    0.431365    0.762114     0.007504
AU3659   AU        0.251945    0.468020    0.713921     0.007504
AU3660   AU        0.286547    0.428226    0.724593     0.007504
AU3661   AU        0.290489    0.470155    0.769243     0.007504
AU3662   AU        0.312032    0.423786    0.766200     0.007504
AU3663   AU        0.324623    0.456988    0.729225     0.007504
AU3664   AU        0.364304    0.423060    0.722797     0.007504
AU3665   AU        0.367017    0.462460    0.756807     0.007504
AU3666   AU        0.398767    0.421689    0.758800     0.007504
NI3667   NI        0.395845    0.460992    0.708516     0.004307
NI3668   NI        0.440423    0.430770    0.721661     0.004307
NI3669   NI        0.423915    0.468116    0.748463     0.004307
NI3670   NI        0.449526    0.442505    0.766578     0.004307
NI3671   NI        0.454262    0.470458    0.711928     0.004307
NI3672   NI        0.485504    0.425160    0.741273     0.004307
AU3673   AU        0.502989    0.471789    0.748694     0.007504
AU3674   AU        0.552118    0.426656    0.773817     0.007504
AU3675   AU        0.539105    0.473498    0.713294     0.007504
AU3676   AU        0.565794    0.431178    0.723692     0.007504
AU3677   AU        0.579936    0.469247    0.756100     0.007504
AU3678   AU        0.609788    0.437360    0.745288     0.007504
AU3679   AU        0.616933    0.477899    0.720231     0.007504
AU3680   AU        0.653900    0.417379    0.742543     0.007504
AU3681   AU        0.651269    0.468144    0.752155     0.007504
AU3682   AU        0.689973    0.438917    0.752577     0.007504
AU3683   AU        0.696689    0.483946    0.732974     0.007504
NI3684   NI        0.736189    0.417626    0.747192     0.004307
NI3685   NI        0.727392    0.497327    0.769731     0.004307
NI3686   NI        0.730656    0.458805    0.733922     0.004307
NI3687   NI        0.153034    0.536282    0.713536     0.004307
NI3688   NI        0.211979    0.499771    0.774625     0.004307
NI3689   NI        0.188504    0.555895    0.739243     0.004307
AU3690   AU        0.231243    0.513544    0.735014     0.007504
NI3691   NI        0.220723    0.547520    0.768745     0.004307
AU3692   AU        0.265354    0.515242    0.773924     0.007504
AU3693   AU        0.279043    0.532912    0.727672     0.007504
NI3694   NI        0.293322    0.483279    0.720621     0.004307
AU3695   AU        0.305315    0.544799    0.767843     0.007504
AU3696   AU        0.330348    0.498682    0.758626     0.007504
AU3697   AU        0.329125    0.532805    0.721950     0.007504
AU3698   AU        0.360327    0.495336    0.718796     0.007504
AU3699   AU        0.358522    0.540731    0.762933     0.007504
AU3700   AU        0.387899    0.500649    0.759683     0.007504
AU3701   AU        0.387002    0.537540    0.722542     0.007504
AU3702   AU        0.425196    0.504859    0.722616     0.007504
AU3703   AU        0.423749    0.539894    0.760946     0.007504
NI3704   NI        0.465038    0.499902    0.745412     0.004307
AU3705   AU        0.459975    0.544326    0.726563     0.007504
NI3706   NI        0.500783    0.510596    0.716186     0.004307
AU3707   AU        0.505079    0.545358    0.746084     0.007504
AU3708   AU        0.538293    0.508553    0.749311     0.007504
AU3709   AU        0.552643    0.548551    0.730271     0.007504
AU3710   AU        0.575481    0.504838    0.718124     0.007504
AU3711   AU        0.588275    0.544685    0.765713     0.007504
AU3712   AU        0.614674    0.504296    0.767607     0.007504
AU3713   AU        0.612244    0.538836    0.720242     0.007504
AU3714   AU        0.652213    0.512363    0.731969     0.007504
AU3715   AU        0.641528    0.545979    0.765651     0.007504
NI3716   NI        0.669846    0.506715    0.771650     0.004307
AU3717   AU        0.685054    0.547348    0.731023     0.007504
NI3718   NI        0.733221    0.515147    0.725637     0.004307
NI3719   NI        0.141349    0.522668    0.752882     0.004307
NI3720   NI        0.188654    0.588279    0.769767     0.004307
NI3721   NI        0.210939    0.635840    0.737474     0.004307
AU3722   AU        0.221046    0.586764    0.732573     0.007504
NI3723   NI        0.250382    0.574133    0.797968     0.004307
AU3724   AU        0.258840    0.564969    0.750305     0.007504
NI3725   NI        0.258868    0.627463    0.735312     0.004307
AU3726   AU        0.303744    0.577464    0.729613     0.007504
AU3727   AU        0.286209    0.586941    0.776872     0.007504
AU3728   AU        0.334256    0.583981    0.768970     0.007504
AU3729   AU        0.335575    0.619572    0.729460     0.007504
AU3730   AU        0.354349    0.573560    0.721697     0.007504
AU3731   AU        0.365463    0.623190    0.765470     0.007504
AU3732   AU        0.383913    0.576152    0.758547     0.007504
AU3733   AU        0.387316    0.610577    0.720508     0.007504
AU3734   AU        0.422505    0.574725    0.724964     0.007504
AU3735   AU        0.415281    0.614820    0.759885     0.007504
AU3736   AU        0.453959    0.579570    0.762809     0.007504
AU3737   AU        0.455616    0.616450    0.728569     0.007504
AU3738   AU        0.492245    0.582603    0.728422     0.007504
AU3739   AU        0.491822    0.615650    0.765350     0.007504
AU3740   AU        0.532542    0.583324    0.759449     0.007504
AU3741   AU        0.526788    0.618322    0.732763     0.007504
AU3742   AU        0.572930    0.588068    0.723360     0.007504
AU3743   AU        0.574554    0.619643    0.752906     0.007504
AU3744   AU        0.608805    0.581064    0.752740     0.007504
AU3745   AU        0.615637    0.616537    0.721849     0.007504
AU3746   AU        0.646953    0.576177    0.724425     0.007504
NI3747   NI        0.656153    0.586048    0.775683     0.004307
NI3748   NI        0.713323    0.545831    0.768536     0.004307
NI3749   NI        0.686165    0.600828    0.731900     0.004307
NI3750   NI        0.729191    0.573171    0.729225     0.004307
NI3751   NI        0.223741    0.679115    0.746041     0.004307
NI3752   NI        0.241782    0.606559    0.765804     0.004307
NI3753   NI        0.253707    0.720773    0.700112     0.004307
AU3754   AU        0.299616    0.654900    0.726829     0.007504
NI3755   NI        0.275737    0.665768    0.768144     0.004307
AU3756   AU        0.329792    0.660945    0.764573     0.007504
AU3757   AU        0.335937    0.688950    0.721509     0.007504
AU3758   AU        0.361098    0.652613    0.721743     0.007504
NI3759   NI        0.300300    0.731826    0.713777     0.004307
NI3760   NI        0.391005    0.658718    0.758696     0.004307
AU3761   AU        0.390695    0.687321    0.719909     0.007504
AU3762   AU        0.417785    0.648242    0.716750     0.007504
AU3763   AU        0.443419    0.680654    0.734740     0.007504
NI3764   NI        0.473368    0.653890    0.787409     0.004307
AU3765   AU        0.483684    0.704245    0.738369     0.007504
AU3766   AU        0.488768    0.655493    0.733389     0.007504
NI3767   NI        0.497313    0.694740    0.789327     0.004307
NI3768   NI        0.516437    0.659374    0.766696     0.004307
AU3769   AU        0.528450    0.687143    0.734263     0.007504
AU3770   AU        0.562536    0.659204    0.741870     0.007504
NI3771   NI        0.549921    0.689273    0.775741     0.004307
NI3772   NI        0.619305    0.621070    0.776439     0.004307
NI3773   NI        0.605415    0.658814    0.743703     0.004307
NI3774   NI        0.655207    0.651790    0.720550     0.004307
NI3775   NI        0.261118    0.674719    0.725377     0.004307
NI3776   NI        0.358227    0.727774    0.715236     0.004307
NI3777   NI        0.381177    0.716333    0.756540     0.004307
NI3778   NI        0.396916    0.762799    0.714487     0.004307
NI3779   NI        0.418527    0.721571    0.721015     0.004307
NI3780   NI        0.474783    0.736554    0.767816     0.004307
NI3781   NI        0.454907    0.754902    0.726434     0.004307
NI3782   NI        0.525620    0.733237    0.740652     0.004307
NI3783   NI        0.571764    0.705637    0.733241     0.004307
NI3784   NI        0.383195    0.247620    0.793053     0.004307
NI3785   NI        0.490162    0.209645    0.789745     0.004307
NI3786   NI        0.261105    0.251207    0.802831     0.004307
NI3787   NI        0.337993    0.255949    0.795006     0.004307
NI3788   NI        0.352533    0.205212    0.785010     0.004307
NI3789   NI        0.360580    0.253835    0.832378     0.004307
AU3790   AU        0.417137    0.248737    0.766212     0.007504
AU3791   AU        0.440826    0.208790    0.768733     0.007504
NI3792   NI        0.438825    0.240625    0.807026     0.004307
NI3793   NI        0.442427    0.277343    0.839288     0.004307
NI3794   NI        0.478412    0.255553    0.809754     0.004307
NI3795   NI        0.478756    0.299710    0.831380     0.004307
NI3796   NI        0.544630    0.212786    0.817361     0.004307
NI3797   NI        0.610238    0.273462    0.808107     0.004307
NI3798   NI        0.245401    0.317114    0.789784     0.004307
NI3799   NI        0.263542    0.281902    0.763072     0.004307
NI3800   NI        0.288553    0.292287    0.796088     0.004307
NI3801   NI        0.307481    0.224457    0.814459     0.004307
AU3802   AU        0.327044    0.317923    0.795497     0.007504
AU3803   AU        0.366843    0.294126    0.792273     0.007504
NI3804   NI        0.348571    0.316083    0.833822     0.004307
NI3805   NI        0.403471    0.290021    0.818020     0.004307
AU3806   AU        0.401081    0.330885    0.799904     0.007504
AU3807   AU        0.441357    0.286592    0.788945     0.007504
AU3808   AU        0.445931    0.323724    0.814324     0.007504
NI3809   NI        0.464745    0.339095    0.857412     0.004307
AU3810   AU        0.476427    0.333880    0.781970     0.007504
AU3811   AU        0.510628    0.302367    0.799807     0.007504
NI3812   NI        0.511113    0.333764    0.843631     0.004307
NI3813   NI        0.533331    0.274322    0.838976     0.004307
NI3814   NI        0.548245    0.317590    0.831231     0.004307
NI3815   NI        0.566076    0.288602    0.806998     0.004307
NI3816   NI        0.635593    0.326821    0.814767     0.004307
NI3817   NI        0.593731    0.326781    0.821920     0.004307
NI3818   NI        0.172293    0.427232    0.780277     0.004307
NI3819   NI        0.212463    0.402899    0.808140     0.004307
NI3820   NI        0.298169    0.321725    0.833542     0.004307
AU3821   AU        0.262740    0.393033    0.794318     0.007504
AU3822   AU        0.286080    0.348993    0.794968     0.007504
NI3823   NI        0.283264    0.377597    0.836442     0.004307
NI3824   NI        0.327237    0.355585    0.826357     0.004307
AU3825   AU        0.314026    0.391915    0.801208     0.007504
AU3826   AU        0.360750    0.350347    0.793629     0.007504
AU3827   AU        0.379834    0.353663    0.838993     0.007504
AU3828   AU        0.426852    0.360650    0.831737     0.007504
AU3829   AU        0.394361    0.388201    0.799625     0.007504
AU3830   AU        0.439261    0.369021    0.789751     0.007504
AU3831   AU        0.459031    0.402412    0.837562     0.007504
AU3832   AU        0.477483    0.364767    0.821457     0.007504
AU3833   AU        0.469562    0.400639    0.783204     0.007504
AU3834   AU        0.519017    0.350022    0.800521     0.007504
AU3835   AU        0.502256    0.399818    0.813718     0.007504
NI3836   NI        0.531286    0.374895    0.838887     0.004307
AU3837   AU        0.554201    0.389784    0.805286     0.007504
AU3838   AU        0.594054    0.360386    0.794839     0.007504
NI3839   NI        0.554316    0.405843    0.857702     0.004307
NI3840   NI        0.586416    0.367874    0.841557     0.004307
AU3841   AU        0.597743    0.409680    0.815942     0.007504
NI3842   NI        0.637026    0.365840    0.804426     0.004307
AU3843   AU        0.673115    0.391489    0.772446     0.007504
NI3844   NI        0.177181    0.472496    0.796291     0.004307
AU3845   AU        0.214340    0.446184    0.779899     0.007504
NI3846   NI        0.259890    0.422791    0.838406     0.004307
NI3847   NI        0.244018    0.479441    0.802080     0.004307
AU3848   AU        0.289138    0.435228    0.806418     0.007504
NI3849   NI        0.262044    0.463612    0.836944     0.004307
AU3850   AU        0.332374    0.431698    0.834368     0.007504
AU3851   AU        0.332100    0.462452    0.795196     0.007504
AU3852   AU        0.366859    0.428647    0.797577     0.007504
AU3853   AU        0.370714    0.465577    0.826754     0.007504
AU3854   AU        0.404439    0.436903    0.835217     0.007504
AU3855   AU        0.405535    0.463386    0.789181     0.007504
AU3856   AU        0.430354    0.421244    0.799940     0.007504
AU3857   AU        0.438241    0.475390    0.824164     0.007504
AU3858   AU        0.467761    0.438863    0.814163     0.007504
AU3859   AU        0.466814    0.479605    0.783592     0.007504
AU3860   AU        0.499814    0.438505    0.782558     0.007504
AU3861   AU        0.502836    0.473674    0.817105     0.007504
AU3862   AU        0.532888    0.435777    0.819690     0.007504
AU3863   AU        0.537601    0.470422    0.784088     0.007504
AU3864   AU        0.576954    0.455733    0.806321     0.007504
NI3865   NI        0.554125    0.486414    0.835960     0.004307
NI3866   NI        0.575097    0.442383    0.848785     0.004307
AU3867   AU        0.618660    0.460581    0.789336     0.007504
NI3868   NI        0.660769    0.435160    0.790425     0.004307
NI3869   NI        0.624376    0.438309    0.839964     0.004307
NI3870   NI        0.236111    0.530608    0.805593     0.004307
NI3871   NI        0.270006    0.510969    0.830188     0.004307
NI3872   NI        0.283770    0.549471    0.808658     0.004307
AU3873   AU        0.309402    0.509635    0.804301     0.007504
NI3874   NI        0.306144    0.538813    0.850186     0.004307
NI3875   NI        0.309955    0.473173    0.839018     0.004307
AU3876   AU        0.336144    0.549977    0.807487     0.007504
AU3877   AU        0.359193    0.508033    0.799137     0.007504
NI3878   NI        0.341188    0.514659    0.843881     0.004307
NI3879   NI        0.419897    0.512248    0.844579     0.004307
AU3880   AU        0.392715    0.545713    0.798853     0.007504
AU3881   AU        0.426147    0.509906    0.793593     0.007504
NI3882   NI        0.455204    0.544290    0.854965     0.004307
AU3883   AU        0.471315    0.513441    0.821464     0.007504
AU3884   AU        0.466954    0.533410    0.777867     0.007504
AU3885   AU        0.504234    0.512460    0.782651     0.007504
NI3886   NI        0.497669    0.560591    0.836587     0.004307
AU3887   AU        0.524039    0.522086    0.821356     0.007504
AU3888   AU        0.540374    0.546587    0.781540     0.007504
AU3889   AU        0.570437    0.507852    0.793318     0.007504
NI3890   NI        0.556991    0.549120    0.820012     0.004307
NI3891   NI        0.606739    0.498680    0.823315     0.004307
NI3892   NI        0.617076    0.572402    0.797308     0.004307
NI3893   NI        0.643086    0.529858    0.803015     0.004307
NI3894   NI        0.211586    0.573852    0.818874     0.004307
NI3895   NI        0.276242    0.625361    0.798449     0.004307
NI3896   NI        0.325319    0.615188    0.805863     0.004307
NI3897   NI        0.304243    0.622117    0.762161     0.004307
AU3898   AU        0.367409    0.591618    0.806149     0.007504
NI3899   NI        0.353765    0.630919    0.837542     0.004307
NI3900   NI        0.374984    0.551847    0.837745     0.004307
AU3901   AU        0.395049    0.634425    0.804673     0.007504
AU3902   AU        0.439180    0.556447    0.808292     0.007504
NI3903   NI        0.406628    0.587155    0.830265     0.004307
NI3904   NI        0.453462    0.596056    0.838300     0.004307
AU3905   AU        0.445178    0.617130    0.794147     0.007504
AU3906   AU        0.496078    0.571101    0.790329     0.007504
NI3907   NI        0.496780    0.622199    0.809461     0.004307
NI3908   NI        0.532058    0.592567    0.819050     0.004307
AU3909   AU        0.533722    0.623670    0.780876     0.007504
AU3910   AU        0.570837    0.585365    0.789381     0.007504
NI3911   NI        0.572984    0.628494    0.804981     0.004307
NI3912   NI        0.352595    0.648343    0.800641     0.004307
NI3913   NI        0.378566    0.684203    0.790110     0.004307
AU3914   AU        0.431920    0.660065    0.777088     0.007504
NI3915   NI        0.435822    0.711301    0.775541     0.004307
NI3916   NI        0.519288    0.661578    0.807813     0.004307
NI3917   NI        0.422389    0.411246    0.875372     0.004307
NI3918   NI        0.411747    0.370470    0.878939     0.004307
NI3919   NI        0.500326    0.387487    0.865358     0.004307
NI3920   NI        0.381163    0.402595    0.838143     0.004307
NI3921   NI        0.381935    0.438588    0.875620     0.004307
NI3922   NI        0.446312    0.443851    0.863807     0.004307
NI3923   NI        0.469998    0.480346    0.859170     0.004307
AU3924   AU        0.493690    0.432287    0.849901     0.007504
NI3925   NI        0.419718    0.474848    0.862651     0.004307
