data_00001
_audit_creation_method   'DISCUS'

_data_chemical_name_common 'Au.cell: Pearson 85'

_cell_length_a             61.1835
_cell_length_b             61.1835
_cell_length_c             61.1835
_cell_angle_alpha     90.0000
_cell_angle_beta      90.0000
_cell_angle_gamma     90.0000

_symmetry_space_group_name_H-M   'P1              '

loop_
_atom_site_label
_atom_site_symbol
_atom_site_fract_x
_atom_site_fract_y
_atom_site_fract_z
_atom_site_u_iso_or_equiv
PD1   PD        0.369274    0.272258    0.088363     0.005394
PD2   PD        0.434271    0.267035    0.090159     0.005394
PD3   PD        0.502126    0.270251    0.087792     0.005394
AU4   AU        0.303757    0.336908    0.089307     0.007504
PD5   PD        0.338433    0.306260    0.090404     0.005394
PD6   PD        0.367623    0.337788    0.088153     0.005394
PD7   PD        0.403049    0.305780    0.088602     0.005394
PD8   PD        0.433072    0.340147    0.088096     0.005394
AU9   AU        0.464335    0.302755    0.085771     0.007504
PD10   PD        0.499484    0.336313    0.088359     0.005394
PD11   PD        0.538403    0.303987    0.090719     0.005394
AU12   AU        0.568602    0.337204    0.086685     0.007504
AU13   AU        0.271645    0.370825    0.087602     0.007504
PD14   PD        0.302053    0.405084    0.088368     0.005394
PD15   PD        0.334921    0.372281    0.089657     0.005394
AU16   AU        0.370416    0.404364    0.090831     0.007504
AU17   AU        0.402507    0.370779    0.088340     0.007504
PD18   PD        0.400054    0.402026    0.056463     0.005394
PD19   PD        0.437330    0.373491    0.052578     0.005394
PD20   PD        0.436044    0.403332    0.089284     0.005394
PD21   PD        0.499951    0.369084    0.055416     0.005394
PD22   PD        0.465913    0.404943    0.053371     0.005394
PD23   PD        0.499349    0.405001    0.087585     0.005394
AU24   AU        0.532133    0.369131    0.087968     0.007504
PD25   PD        0.565137    0.441847    0.055247     0.005394
PD26   PD        0.603559    0.368601    0.083406     0.005394
PD27   PD        0.271835    0.436061    0.089110     0.005394
PD28   PD        0.307114    0.469274    0.086348     0.005394
PD29   PD        0.337330    0.435416    0.091289     0.005394
AU30   AU        0.367354    0.435830    0.055064     0.007504
AU31   AU        0.368645    0.470295    0.089275     0.007504
AU32   AU        0.403443    0.436652    0.089084     0.007504
PD33   PD        0.400409    0.470708    0.055535     0.005394
PD34   PD        0.438752    0.465486    0.000667     0.005394
AU35   AU        0.433324    0.472283    0.085899     0.007504
AU36   AU        0.466703    0.438312    0.089570     0.007504
PD37   PD        0.466796    0.472819    0.056844     0.005394
AU38   AU        0.499603    0.439527    0.055292     0.007504
AU39   AU        0.502986    0.470433    0.089875     0.007504
PD40   PD        0.536183    0.433815    0.089198     0.005394
PD41   PD        0.564099    0.465900    0.086101     0.005394
AU42   AU        0.600938    0.433447    0.088980     0.007504
PD43   PD        0.269836    0.501567    0.088377     0.005394
PD44   PD        0.305810    0.534718    0.092642     0.005394
PD45   PD        0.344139    0.489390    0.067573     0.005394
AU46   AU        0.367591    0.535877    0.090546     0.007504
AU47   AU        0.399281    0.504018    0.087912     0.007504
AU48   AU        0.433406    0.506760    0.053468     0.007504
AU49   AU        0.436286    0.535629    0.088887     0.007504
PD50   PD        0.468180    0.502303    0.089565     0.005394
AU51   AU        0.499439    0.535380    0.087982     0.007504
AU52   AU        0.532813    0.503442    0.087166     0.007504
PD53   PD        0.566775    0.535092    0.087921     0.005394
PD54   PD        0.598051    0.504654    0.087233     0.005394
PD55   PD        0.338186    0.571759    0.089081     0.005394
PD56   PD        0.369598    0.602452    0.088058     0.005394
AU57   AU        0.400296    0.568275    0.088515     0.007504
PD58   PD        0.437236    0.602846    0.087933     0.005394
AU59   AU        0.467185    0.568593    0.088643     0.007504
AU60   AU        0.500076    0.604257    0.089329     0.007504
PD61   PD        0.531559    0.572581    0.088590     0.005394
PD62   PD        0.304075    0.203902    0.152345     0.005394
AU63   AU        0.336197    0.204212    0.118766     0.007504
AU64   AU        0.402054    0.170688    0.152002     0.007504
PD65   PD        0.400231    0.202228    0.120906     0.005394
AU66   AU        0.434960    0.203437    0.152412     0.007504
AU67   AU        0.466976    0.171688    0.153632     0.007504
PD68   PD        0.464748    0.202010    0.120779     0.005394
AU69   AU        0.499445    0.203958    0.153518     0.007504
PD70   PD        0.606467    0.201893    0.121980     0.005394
PD71   PD        0.237771    0.269347    0.150931     0.005394
AU72   AU        0.272905    0.235044    0.151524     0.007504
PD73   PD        0.271947    0.270366    0.117277     0.005394
AU74   AU        0.303047    0.270141    0.153019     0.007504
AU75   AU        0.336153    0.236857    0.153211     0.007504
AU76   AU        0.336184    0.270862    0.120016     0.007504
PD77   PD        0.368964    0.236575    0.121313     0.005394
PD78   PD        0.370879    0.270931    0.153517     0.005394
PD79   PD        0.401462    0.237797    0.153723     0.005394
PD80   PD        0.405222    0.266579    0.119996     0.005394
PD81   PD        0.432343    0.237053    0.121645     0.005394
AU82   AU        0.434728    0.268813    0.153402     0.007504
AU83   AU        0.466740    0.235991    0.152708     0.007504
AU84   AU        0.468164    0.269376    0.121126     0.007504
PD85   PD        0.499449    0.236024    0.119418     0.005394
PD86   PD        0.503372    0.268971    0.153230     0.005394
PD87   PD        0.534209    0.235736    0.153199     0.005394
AU88   AU        0.534422    0.268971    0.122975     0.007504
AU89   AU        0.566779    0.269965    0.152679     0.007504
PD90   PD        0.601130    0.235331    0.155878     0.005394
PD91   PD        0.602575    0.271014    0.122376     0.005394
PD92   PD        0.634478    0.268969    0.153845     0.005394
PD93   PD        0.207349    0.306566    0.154558     0.005394
AU94   AU        0.236172    0.341912    0.156235     0.007504
PD95   PD        0.270706    0.303045    0.155237     0.005394
AU96   AU        0.271258    0.337996    0.123097     0.007504
PD97   PD        0.302841    0.303741    0.124989     0.005394
PD98   PD        0.303794    0.335100    0.155664     0.005394
PD99   PD        0.337208    0.300798    0.155368     0.005394
PD100   PD        0.335894    0.333922    0.122068     0.005394
AU101   AU        0.370569    0.303614    0.121323     0.007504
AU102   AU        0.368987    0.336797    0.154140     0.007504
AU103   AU        0.404002    0.302431    0.153011     0.007504
AU104   AU        0.402942    0.337251    0.120764     0.007504
AU105   AU        0.435441    0.302571    0.120681     0.007504
AU106   AU        0.434314    0.335589    0.153456     0.007504
PD107   PD        0.469977    0.304139    0.153724     0.005394
PD108   PD        0.467128    0.337421    0.121332     0.005394
PD109   PD        0.499490    0.304065    0.120832     0.005394
AU110   AU        0.503382    0.336961    0.153090     0.007504
AU111   AU        0.533683    0.303559    0.153526     0.007504
AU112   AU        0.534706    0.336123    0.121024     0.007504
AU113   AU        0.569563    0.304020    0.123084     0.007504
AU114   AU        0.566676    0.338978    0.154249     0.007504
AU115   AU        0.600585    0.305812    0.155293     0.007504
AU116   AU        0.600723    0.335998    0.121750     0.007504
PD117   PD        0.634869    0.335093    0.154200     0.005394
PD118   PD        0.667282    0.304438    0.152989     0.005394
AU119   AU        0.169511    0.400840    0.156579     0.007504
PD120   PD        0.204450    0.367639    0.157033     0.005394
PD121   PD        0.130001    0.433111    0.086332     0.005394
AU122   AU        0.240336    0.371726    0.121233     0.007504
PD123   PD        0.238240    0.401721    0.155603     0.005394
AU124   AU        0.271787    0.370733    0.157126     0.007504
PD125   PD        0.271924    0.406704    0.121688     0.005394
PD126   PD        0.305172    0.370454    0.123605     0.005394
AU127   AU        0.304626    0.401037    0.155518     0.007504
PD128   PD        0.338766    0.369801    0.154365     0.005394
PD129   PD        0.338124    0.403709    0.121052     0.005394
PD130   PD        0.368633    0.368496    0.122250     0.005394
PD131   PD        0.370276    0.404587    0.154060     0.005394
PD132   PD        0.400833    0.369911    0.153095     0.005394
PD133   PD        0.401296    0.401195    0.122813     0.005394
PD134   PD        0.434775    0.370071    0.122621     0.005394
AU135   AU        0.434830    0.404330    0.153454     0.007504
PD136   PD        0.467746    0.371538    0.155276     0.005394
AU137   AU        0.468597    0.405545    0.120441     0.007504
AU138   AU        0.501772    0.370210    0.121704     0.007504
PD139   PD        0.502447    0.401676    0.150878     0.005394
AU140   AU        0.535114    0.370463    0.153116     0.007504
AU141   AU        0.536139    0.402834    0.121602     0.007504
AU142   AU        0.568461    0.369545    0.120842     0.007504
AU143   AU        0.565825    0.401638    0.154143     0.007504
PD144   PD        0.600955    0.371974    0.155817     0.005394
PD145   PD        0.600232    0.403526    0.122895     0.005394
AU146   AU        0.633804    0.369479    0.121851     0.007504
PD147   PD        0.634677    0.405187    0.153438     0.005394
PD148   PD        0.664579    0.368397    0.154797     0.005394
PD149   PD        0.666115    0.404897    0.121441     0.005394
PD150   PD        0.697525    0.404803    0.154761     0.005394
PD151   PD        0.167566    0.470329    0.153958     0.005394
PD152   PD        0.201290    0.439073    0.156516     0.005394
PD153   PD        0.240483    0.467681    0.091128     0.005394
PD154   PD        0.240799    0.435671    0.123672     0.005394
PD155   PD        0.234780    0.468805    0.154483     0.005394
PD156   PD        0.272091    0.434747    0.156273     0.005394
PD157   PD        0.273433    0.468811    0.122608     0.005394
AU158   AU        0.304649    0.436344    0.122791     0.007504
PD159   PD        0.307069    0.470945    0.155225     0.005394
AU160   AU        0.337010    0.436775    0.154275     0.007504
PD161   PD        0.338863    0.472220    0.122148     0.005394
AU162   AU        0.370967    0.438668    0.121053     0.007504
AU163   AU        0.369654    0.471943    0.153326     0.007504
PD164   PD        0.401626    0.438319    0.154022     0.005394
PD165   PD        0.400961    0.473415    0.120431     0.005394
AU166   AU        0.433945    0.437915    0.123073     0.007504
PD167   PD        0.435047    0.469945    0.153268     0.005394
PD168   PD        0.471925    0.435254    0.153197     0.005394
PD169   PD        0.468085    0.470822    0.121372     0.005394
PD170   PD        0.503487    0.435799    0.121672     0.005394
AU171   AU        0.500373    0.470759    0.153367     0.007504
PD172   PD        0.535246    0.438860    0.155602     0.005394
PD173   PD        0.534999    0.470867    0.120835     0.005394
AU174   AU        0.564687    0.437851    0.122517     0.007504
PD175   PD        0.565686    0.470173    0.153379     0.005394
AU176   AU        0.600413    0.436377    0.153857     0.007504
AU177   AU        0.598657    0.469618    0.119818     0.007504
PD178   PD        0.632505    0.437046    0.121772     0.005394
AU179   AU        0.632853    0.468774    0.153108     0.007504
PD180   PD        0.667518    0.440009    0.155189     0.005394
PD181   PD        0.637484    0.475506    0.081666     0.005394
AU182   AU        0.732007    0.438900    0.152834     0.007504
AU183   AU        0.201749    0.502795    0.154309     0.007504
PD184   PD        0.234554    0.502444    0.121662     0.005394
PD185   PD        0.233897    0.533849    0.154206     0.005394
PD186   PD        0.268672    0.500336    0.156125     0.005394
PD187   PD        0.271574    0.535374    0.121998     0.005394
PD188   PD        0.305234    0.502978    0.123119     0.005394
PD189   PD        0.300731    0.536562    0.153798     0.005394
AU190   AU        0.335883    0.504545    0.156060     0.007504
PD191   PD        0.337652    0.535837    0.123750     0.005394
PD192   PD        0.368679    0.505429    0.123613     0.005394
PD193   PD        0.367382    0.538918    0.152695     0.005394
AU194   AU        0.403701    0.506659    0.154515     0.007504
AU195   AU        0.400904    0.537748    0.120802     0.007504
AU196   AU        0.434612    0.502596    0.121724     0.007504
AU197   AU        0.435460    0.538036    0.152241     0.007504
PD198   PD        0.466036    0.504665    0.153906     0.005394
AU199   AU        0.467151    0.538432    0.120050     0.007504
AU200   AU        0.501611    0.503980    0.122984     0.007504
AU201   AU        0.501650    0.537104    0.153677     0.007504
AU202   AU        0.534535    0.505384    0.153744     0.007504
AU203   AU        0.533056    0.536212    0.121982     0.007504
PD204   PD        0.565220    0.502096    0.118449     0.005394
PD205   PD        0.566382    0.538110    0.154128     0.005394
PD206   PD        0.599193    0.503188    0.153159     0.005394
PD207   PD        0.599216    0.538312    0.121746     0.005394
AU208   AU        0.631797    0.501485    0.119772     0.007504
PD209   PD        0.633929    0.534090    0.152451     0.005394
PD210   PD        0.664709    0.502840    0.151751     0.005394
PD211   PD        0.169787    0.603174    0.158922     0.005394
PD212   PD        0.232053    0.603045    0.156098     0.005394
PD213   PD        0.267985    0.570101    0.152476     0.005394
PD214   PD        0.240176    0.648013    0.058064     0.005394
PD215   PD        0.304037    0.569869    0.121624     0.005394
PD216   PD        0.302762    0.601089    0.156491     0.005394
AU217   AU        0.334166    0.570935    0.155151     0.007504
PD218   PD        0.337138    0.601897    0.121211     0.005394
AU219   AU        0.369989    0.570012    0.121778     0.007504
AU220   AU        0.368556    0.602088    0.155358     0.007504
AU221   AU        0.401419    0.569369    0.154256     0.007504
PD222   PD        0.403308    0.602056    0.118312     0.005394
AU223   AU        0.432899    0.572582    0.121324     0.007504
AU224   AU        0.431944    0.604528    0.155112     0.007504
PD225   PD        0.467116    0.570364    0.156300     0.005394
AU226   AU        0.465730    0.602742    0.121753     0.007504
AU227   AU        0.499843    0.568439    0.121267     0.007504
AU228   AU        0.501512    0.601485    0.152940     0.007504
PD229   PD        0.534267    0.568647    0.153524     0.005394
PD230   PD        0.535251    0.635486    0.090870     0.005394
PD231   PD        0.565060    0.571168    0.120783     0.005394
AU232   AU        0.565560    0.602970    0.153672     0.007504
PD233   PD        0.602077    0.569995    0.152853     0.005394
PD234   PD        0.597959    0.603874    0.119123     0.005394
AU235   AU        0.633052    0.603644    0.153254     0.007504
PD236   PD        0.662944    0.570982    0.152324     0.005394
PD237   PD        0.227123    0.633377    0.119996     0.005394
AU238   AU        0.305777    0.668955    0.155286     0.007504
AU239   AU        0.335847    0.634116    0.153670     0.007504
PD240   PD        0.371054    0.636599    0.122640     0.005394
AU241   AU        0.369922    0.668332    0.153307     0.007504
AU242   AU        0.401452    0.636780    0.156592     0.007504
PD243   PD        0.401837    0.669919    0.120213     0.005394
AU244   AU        0.435220    0.637413    0.119503     0.007504
AU245   AU        0.432759    0.668977    0.153013     0.007504
AU246   AU        0.466717    0.634375    0.153012     0.007504
AU247   AU        0.467725    0.670680    0.121978     0.007504
PD248   PD        0.499575    0.638605    0.122049     0.005394
PD249   PD        0.501553    0.667792    0.154993     0.005394
PD250   PD        0.534067    0.636019    0.153966     0.005394
PD251   PD        0.562716    0.667850    0.153000     0.005394
AU252   AU        0.598984    0.635214    0.153765     0.007504
PD253   PD        0.402863    0.703467    0.155182     0.005394
PD254   PD        0.467792    0.700415    0.154343     0.005394
PD255   PD        0.301144    0.138681    0.219055     0.005394
PD256   PD        0.365830    0.133850    0.222314     0.005394
PD257   PD        0.402426    0.105693    0.214452     0.005394
PD258   PD        0.406607    0.136589    0.183500     0.005394
AU259   AU        0.434756    0.139333    0.219672     0.007504
AU260   AU        0.470024    0.107311    0.218147     0.007504
PD261   PD        0.468953    0.140696    0.186941     0.005394
PD262   PD        0.501311    0.138346    0.220559     0.005394
AU263   AU        0.565582    0.137136    0.219831     0.007504
AU264   AU        0.237407    0.203537    0.217084     0.007504
PD265   PD        0.272441    0.172875    0.216788     0.005394
AU266   AU        0.272237    0.205743    0.185729     0.007504
AU267   AU        0.269847    0.173054    0.149134     0.007504
AU268   AU        0.304538    0.205751    0.219398     0.007504
AU269   AU        0.335154    0.172107    0.219304     0.007504
PD270   PD        0.336403    0.202940    0.185487     0.005394
PD271   PD        0.369847    0.168408    0.187270     0.005394
PD272   PD        0.368548    0.203617    0.217051     0.005394
PD273   PD        0.401331    0.172541    0.219525     0.005394
AU274   AU        0.400911    0.203291    0.184851     0.007504
AU275   AU        0.434198    0.172573    0.187002     0.007504
AU276   AU        0.435240    0.205535    0.220965     0.007504
AU277   AU        0.469081    0.170598    0.220025     0.007504
PD278   PD        0.468947    0.205855    0.185269     0.005394
PD279   PD        0.499936    0.171344    0.186871     0.005394
PD280   PD        0.500698    0.202827    0.217737     0.005394
AU281   AU        0.534128    0.170074    0.217992     0.007504
PD282   PD        0.535476    0.205440    0.186859     0.005394
PD283   PD        0.566089    0.170548    0.184557     0.005394
AU284   AU        0.567001    0.204883    0.219164     0.007504
AU285   AU        0.597743    0.170912    0.217727     0.007504
PD286   PD        0.603612    0.202804    0.183514     0.005394
AU287   AU        0.633849    0.204215    0.221033     0.007504
AU288   AU        0.171293    0.268741    0.218804     0.007504
PD289   PD        0.204777    0.236715    0.218285     0.005394
PD290   PD        0.205505    0.272052    0.185870     0.005394
AU291   AU        0.236775    0.239511    0.183182     0.007504
PD292   PD        0.238248    0.269607    0.216191     0.005394
PD293   PD        0.269571    0.235550    0.218424     0.005394
PD294   PD        0.269460    0.268178    0.187149     0.005394
AU295   AU        0.304564    0.238205    0.185680     0.007504
AU296   AU        0.303199    0.269699    0.219096     0.007504
PD297   PD        0.335772    0.237519    0.220012     0.005394
AU298   AU        0.337556    0.268590    0.187121     0.007504
AU299   AU        0.368486    0.236770    0.188028     0.007504
AU300   AU        0.370756    0.270267    0.219892     0.007504
AU301   AU        0.402635    0.235655    0.217574     0.007504
AU302   AU        0.403470    0.270420    0.185867     0.007504
AU303   AU        0.434062    0.235332    0.184866     0.007504
AU304   AU        0.433662    0.270737    0.218151     0.007504
PD305   PD        0.467620    0.239032    0.218920     0.005394
AU306   AU        0.469852    0.270424    0.184803     0.007504
AU307   AU        0.501307    0.236728    0.188063     0.007504
AU308   AU        0.502697    0.268695    0.219191     0.007504
AU309   AU        0.535136    0.237602    0.219870     0.007504
PD310   PD        0.532552    0.270042    0.184063     0.005394
PD311   PD        0.565966    0.238808    0.186038     0.005394
PD312   PD        0.565936    0.271276    0.217336     0.005394
AU313   AU        0.599798    0.234984    0.217699     0.007504
PD314   PD        0.599137    0.269942    0.183768     0.005394
PD315   PD        0.634875    0.237990    0.188184     0.005394
PD316   PD        0.632423    0.270102    0.221798     0.005394
PD317   PD        0.665409    0.237216    0.219883     0.005394
PD318   PD        0.668575    0.269403    0.185881     0.005394
AU319   AU        0.699681    0.273005    0.215950     0.007504
PD320   PD        0.135195    0.301593    0.215172     0.005394
PD321   PD        0.170977    0.303455    0.188009     0.005394
PD322   PD        0.168973    0.337256    0.221203     0.005394
PD323   PD        0.203105    0.302011    0.217879     0.005394
PD324   PD        0.202303    0.335002    0.189708     0.005394
PD325   PD        0.237120    0.303882    0.187281     0.005394
PD326   PD        0.236305    0.335496    0.218646     0.005394
AU327   AU        0.269444    0.302026    0.218437     0.007504
AU328   AU        0.271849    0.335998    0.185305     0.007504
AU329   AU        0.303931    0.301019    0.187475     0.007504
PD330   PD        0.306338    0.334342    0.220525     0.005394
AU331   AU        0.337065    0.301439    0.219129     0.007504
AU332   AU        0.334737    0.335596    0.186633     0.007504
PD333   PD        0.368760    0.302263    0.187126     0.005394
AU334   AU        0.370471    0.335375    0.219476     0.007504
AU335   AU        0.403973    0.305400    0.220187     0.007504
AU336   AU        0.400510    0.336991    0.186351     0.007504
AU337   AU        0.434977    0.303427    0.186306     0.007504
PD338   PD        0.436897    0.337241    0.217634     0.005394
PD339   PD        0.466368    0.304675    0.217658     0.005394
PD340   PD        0.469770    0.338195    0.184122     0.005394
PD341   PD        0.501737    0.304588    0.186378     0.005394
AU342   AU        0.498997    0.337431    0.217627     0.007504
PD343   PD        0.535338    0.305510    0.217134     0.005394
AU344   AU        0.534420    0.338059    0.187207     0.007504
AU345   AU        0.567202    0.305787    0.185627     0.007504
AU346   AU        0.567362    0.337258    0.219982     0.007504
PD347   PD        0.600482    0.303786    0.216706     0.005394
PD348   PD        0.601156    0.336827    0.186555     0.005394
AU349   AU        0.635038    0.302451    0.186988     0.007504
AU350   AU        0.633301    0.335513    0.219370     0.007504
AU351   AU        0.666610    0.303268    0.218521     0.007504
AU352   AU        0.665780    0.337883    0.187075     0.007504
PD353   PD        0.702125    0.305988    0.186197     0.005394
AU354   AU        0.699042    0.338901    0.218952     0.007504
AU355   AU        0.732295    0.305543    0.219386     0.007504
PD356   PD        0.073784    0.435902    0.222235     0.005394
PD357   PD        0.137191    0.372426    0.220113     0.005394
PD358   PD        0.117340    0.387285    0.170238     0.005394
PD359   PD        0.171424    0.373133    0.190619     0.005394
PD360   PD        0.168535    0.407316    0.221704     0.005394
PD361   PD        0.202316    0.373575    0.221943     0.005394
PD362   PD        0.203959    0.405590    0.188695     0.005394
PD363   PD        0.235444    0.369083    0.189042     0.005394
PD364   PD        0.234517    0.401519    0.222073     0.005394
PD365   PD        0.269385    0.369024    0.218534     0.005394
AU366   AU        0.269152    0.403189    0.188719     0.007504
AU367   AU        0.304421    0.369652    0.188107     0.007504
PD368   PD        0.305459    0.405577    0.218550     0.005394
AU369   AU        0.338188    0.371012    0.220490     0.007504
AU370   AU        0.336929    0.403862    0.187118     0.007504
PD371   PD        0.370415    0.371081    0.188500     0.005394
PD372   PD        0.369806    0.405145    0.221943     0.005394
PD373   PD        0.402740    0.368834    0.219483     0.005394
AU374   AU        0.401578    0.403148    0.186061     0.007504
PD375   PD        0.435028    0.369394    0.184190     0.005394
AU376   AU        0.436398    0.404083    0.217344     0.007504
AU377   AU        0.469248    0.370866    0.218482     0.007504
PD378   PD        0.469830    0.404724    0.187015     0.005394
AU379   AU        0.501878    0.370593    0.185202     0.007504
AU380   AU        0.502150    0.402378    0.220693     0.007504
AU381   AU        0.533677    0.368920    0.221413     0.007504
PD382   PD        0.533346    0.400185    0.186469     0.005394
AU383   AU        0.565998    0.368830    0.186734     0.007504
PD384   PD        0.566877    0.403203    0.222542     0.005394
AU385   AU        0.600139    0.368648    0.219725     0.007504
PD386   PD        0.602465    0.403636    0.186929     0.005394
AU387   AU        0.631882    0.370605    0.186485     0.007504
AU388   AU        0.636260    0.402955    0.218818     0.007504
AU389   AU        0.665951    0.368473    0.218699     0.007504
AU390   AU        0.666723    0.402599    0.186325     0.007504
AU391   AU        0.697662    0.371368    0.187354     0.007504
AU392   AU        0.698231    0.403087    0.221553     0.007504
PD393   PD        0.732195    0.370226    0.219469     0.005394
PD394   PD        0.731223    0.400671    0.188409     0.005394
PD395   PD        0.815209    0.403605    0.195806     0.005394
PD396   PD        0.102738    0.472745    0.220531     0.005394
AU397   AU        0.135171    0.437875    0.223811     0.007504
PD398   PD        0.133070    0.466364    0.189815     0.005394
AU399   AU        0.169021    0.436942    0.188928     0.007504
AU400   AU        0.167440    0.469391    0.221276     0.007504
PD401   PD        0.203222    0.434490    0.219699     0.005394
AU402   AU        0.201704    0.470547    0.190985     0.007504
PD403   PD        0.234512    0.436040    0.189413     0.005394
PD404   PD        0.236141    0.469314    0.222504     0.005394
PD405   PD        0.271236    0.438864    0.223610     0.005394
PD406   PD        0.268840    0.469277    0.187557     0.005394
AU407   AU        0.304423    0.435703    0.185581     0.007504
AU408   AU        0.301695    0.472455    0.218859     0.007504
AU409   AU        0.337411    0.438012    0.219552     0.007504
PD410   PD        0.337376    0.470949    0.187606     0.005394
AU411   AU        0.371089    0.436867    0.185930     0.007504
PD412   PD        0.368310    0.470697    0.220027     0.005394
PD413   PD        0.404289    0.438896    0.219806     0.005394
PD414   PD        0.402480    0.472143    0.184454     0.005394
PD415   PD        0.436325    0.439042    0.188276     0.005394
AU416   AU        0.436238    0.472003    0.221781     0.007504
AU417   AU        0.468997    0.438026    0.218442     0.007504
AU418   AU        0.468162    0.470992    0.185867     0.007504
PD419   PD        0.504872    0.435905    0.188560     0.005394
AU420   AU        0.503041    0.472443    0.219182     0.007504
PD421   PD        0.535481    0.434719    0.219878     0.005394
PD422   PD        0.534718    0.471246    0.184735     0.005394
AU423   AU        0.567485    0.434676    0.188407     0.007504
PD424   PD        0.566185    0.468563    0.222155     0.005394
PD425   PD        0.597305    0.437625    0.219331     0.005394
PD426   PD        0.597967    0.469606    0.185771     0.005394
AU427   AU        0.634444    0.437898    0.187008     0.007504
AU428   AU        0.631333    0.469504    0.220229     0.007504
AU429   AU        0.667129    0.436533    0.221654     0.007504
AU430   AU        0.666574    0.470580    0.188449     0.007504
AU431   AU        0.699878    0.437574    0.186987     0.007504
PD432   PD        0.699217    0.470888    0.219870     0.005394
PD433   PD        0.732506    0.434955    0.217895     0.005394
AU434   AU        0.730229    0.470540    0.189293     0.007504
PD435   PD        0.764527    0.469059    0.220631     0.005394
AU436   AU        0.136699    0.502702    0.220310     0.007504
AU437   AU        0.168311    0.501984    0.187399     0.007504
PD438   PD        0.171802    0.537672    0.221123     0.005394
PD439   PD        0.201245    0.503269    0.220782     0.005394
PD440   PD        0.199746    0.534529    0.185476     0.005394
PD441   PD        0.236217    0.501751    0.187204     0.005394
PD442   PD        0.232564    0.535268    0.223211     0.005394
PD443   PD        0.266619    0.502781    0.219590     0.005394
AU444   AU        0.267469    0.534114    0.186569     0.007504
PD445   PD        0.301944    0.503596    0.185594     0.005394
PD446   PD        0.303577    0.536610    0.220356     0.005394
AU447   AU        0.337302    0.503992    0.221209     0.007504
PD448   PD        0.335501    0.538661    0.188775     0.005394
AU449   AU        0.369563    0.503226    0.186852     0.007504
AU450   AU        0.368396    0.538778    0.220698     0.007504
AU451   AU        0.401842    0.504535    0.220565     0.007504
PD452   PD        0.401563    0.538131    0.188584     0.005394
AU453   AU        0.436337    0.504452    0.188583     0.007504
AU454   AU        0.435486    0.536376    0.220498     0.007504
AU455   AU        0.469462    0.502699    0.222135     0.007504
AU456   AU        0.468036    0.536078    0.187684     0.007504
AU457   AU        0.501584    0.505218    0.186888     0.007504
AU458   AU        0.502394    0.536122    0.220464     0.007504
AU459   AU        0.534945    0.505037    0.221284     0.007504
AU460   AU        0.534527    0.537966    0.187884     0.007504
PD461   PD        0.567570    0.505229    0.186948     0.005394
AU462   AU        0.567942    0.537743    0.218903     0.007504
PD463   PD        0.602459    0.504283    0.219007     0.005394
PD464   PD        0.601328    0.537398    0.186067     0.005394
AU465   AU        0.634767    0.503906    0.187743     0.007504
PD466   PD        0.636493    0.537483    0.219306     0.005394
AU467   AU        0.666372    0.504916    0.219709     0.007504
PD468   PD        0.667627    0.536542    0.187548     0.005394
PD469   PD        0.696843    0.503910    0.188303     0.005394
AU470   AU        0.700089    0.536133    0.221879     0.007504
AU471   AU        0.732987    0.503741    0.220824     0.007504
PD472   PD        0.102618    0.566797    0.255072     0.005394
PD473   PD        0.167591    0.569885    0.186869     0.005394
PD474   PD        0.137343    0.568274    0.221252     0.005394
PD475   PD        0.201811    0.568637    0.220398     0.005394
AU476   AU        0.205220    0.603193    0.185443     0.007504
PD477   PD        0.237568    0.570936    0.187181     0.005394
PD478   PD        0.235890    0.602449    0.221134     0.005394
PD479   PD        0.268004    0.567037    0.219765     0.005394
PD480   PD        0.269547    0.603973    0.189378     0.005394
PD481   PD        0.299767    0.568684    0.187442     0.005394
PD482   PD        0.302763    0.602015    0.218816     0.005394
PD483   PD        0.335085    0.571388    0.220297     0.005394
PD484   PD        0.335631    0.603449    0.187438     0.005394
AU485   AU        0.368013    0.571556    0.187800     0.007504
PD486   PD        0.370300    0.602143    0.220965     0.005394
AU487   AU        0.403366    0.570203    0.219868     0.007504
AU488   AU        0.402670    0.601851    0.187027     0.007504
AU489   AU        0.434210    0.569031    0.186084     0.007504
AU490   AU        0.436484    0.601871    0.221609     0.007504
AU491   AU        0.467977    0.571297    0.217757     0.007504
AU492   AU        0.466778    0.604122    0.185563     0.007504
AU493   AU        0.501150    0.569477    0.185570     0.007504
AU494   AU        0.499496    0.603938    0.218616     0.007504
AU495   AU        0.532887    0.570934    0.219139     0.007504
PD496   PD        0.532781    0.601204    0.186212     0.005394
PD497   PD        0.566635    0.568866    0.187501     0.005394
AU498   AU        0.568978    0.602037    0.220548     0.007504
AU499   AU        0.600038    0.569973    0.221122     0.007504
AU500   AU        0.599454    0.602678    0.186058     0.007504
PD501   PD        0.634387    0.568786    0.187873     0.005394
AU502   AU        0.635456    0.602222    0.218596     0.007504
AU503   AU        0.668236    0.568637    0.222200     0.007504
AU504   AU        0.667393    0.599885    0.187402     0.007504
AU505   AU        0.699864    0.567693    0.185974     0.007504
PD506   PD        0.697846    0.599573    0.220374     0.005394
PD507   PD        0.732290    0.567186    0.219702     0.005394
AU508   AU        0.204184    0.636257    0.220229     0.007504
PD509   PD        0.237693    0.634238    0.187878     0.005394
PD510   PD        0.236019    0.668030    0.220758     0.005394
PD511   PD        0.270431    0.636924    0.220067     0.005394
PD512   PD        0.270005    0.670163    0.187654     0.005394
AU513   AU        0.302831    0.636492    0.187059     0.007504
AU514   AU        0.304808    0.670906    0.219558     0.007504
AU515   AU        0.335253    0.636110    0.219854     0.007504
AU516   AU        0.337908    0.668890    0.186125     0.007504
AU517   AU        0.369297    0.635276    0.187146     0.007504
AU518   AU        0.371011    0.668999    0.219754     0.007504
AU519   AU        0.403024    0.635457    0.219877     0.007504
AU520   AU        0.400850    0.667786    0.187096     0.007504
AU521   AU        0.434981    0.636732    0.187413     0.007504
AU522   AU        0.435043    0.670849    0.221131     0.007504
AU523   AU        0.467733    0.635815    0.218817     0.007504
AU524   AU        0.467648    0.666184    0.185609     0.007504
AU525   AU        0.501697    0.636787    0.186708     0.007504
AU526   AU        0.501029    0.668523    0.220571     0.007504
AU527   AU        0.536373    0.635502    0.219936     0.007504
PD528   PD        0.535239    0.666861    0.187796     0.005394
AU529   AU        0.567935    0.635348    0.187847     0.007504
AU530   AU        0.567242    0.667260    0.220272     0.007504
PD531   PD        0.601743    0.636423    0.222480     0.005394
AU532   AU        0.597549    0.666545    0.184927     0.007504
PD533   PD        0.633333    0.635201    0.184975     0.005394
PD534   PD        0.633180    0.666474    0.217558     0.005394
PD535   PD        0.662366    0.670062    0.186343     0.005394
PD536   PD        0.269908    0.701237    0.219778     0.005394
PD537   PD        0.261347    0.702571    0.153473     0.005394
PD538   PD        0.314860    0.751841    0.211098     0.005394
AU539   AU        0.337716    0.705429    0.222562     0.007504
PD540   PD        0.371202    0.702220    0.187079     0.005394
PD541   PD        0.371230    0.735074    0.223338     0.005394
AU542   AU        0.403421    0.702980    0.219860     0.007504
PD543   PD        0.402678    0.736024    0.187452     0.005394
PD544   PD        0.435956    0.701695    0.185071     0.005394
PD545   PD        0.436539    0.732838    0.219418     0.005394
AU546   AU        0.468493    0.702596    0.218008     0.007504
PD547   PD        0.438584    0.738142    0.160220     0.005394
PD548   PD        0.502707    0.702435    0.187299     0.005394
AU549   AU        0.499538    0.734607    0.220953     0.007504
PD550   PD        0.534698    0.700651    0.219732     0.005394
PD551   PD        0.565657    0.700396    0.188264     0.005394
PD552   PD        0.568719    0.733795    0.218828     0.005394
PD553   PD        0.599958    0.698623    0.215602     0.005394
PD554   PD        0.407724    0.766552    0.221579     0.005394
PD555   PD        0.467566    0.768979    0.221282     0.005394
PD556   PD        0.368041    0.073551    0.275425     0.005394
PD557   PD        0.433426    0.072479    0.284923     0.005394
PD558   PD        0.501762    0.070361    0.280540     0.005394
PD559   PD        0.237336    0.133737    0.286078     0.005394
AU560   AU        0.268094    0.101832    0.288568     0.007504
PD561   PD        0.268172    0.132714    0.254041     0.005394
PD562   PD        0.299615    0.136045    0.285686     0.005394
PD563   PD        0.333453    0.104987    0.283772     0.005394
AU564   AU        0.333014    0.137707    0.253148     0.007504
PD565   PD        0.324537    0.091000    0.243312     0.005394
AU566   AU        0.370388    0.137695    0.284952     0.007504
AU567   AU        0.402680    0.105398    0.283075     0.007504
AU568   AU        0.402521    0.139551    0.250884     0.007504
AU569   AU        0.436136    0.103574    0.250250     0.007504
PD570   PD        0.436407    0.136357    0.283171     0.005394
AU571   AU        0.468889    0.104513    0.284076     0.007504
AU572   AU        0.472027    0.135973    0.251720     0.007504
PD573   PD        0.501594    0.104182    0.251296     0.005394
AU574   AU        0.501408    0.139216    0.285866     0.007504
AU575   AU        0.531773    0.104895    0.286320     0.007504
AU576   AU        0.533059    0.138401    0.251887     0.007504
PD577   PD        0.567444    0.135850    0.284743     0.005394
PD578   PD        0.601128    0.105153    0.285646     0.005394
AU579   AU        0.599554    0.136767    0.250730     0.007504
AU580   AU        0.634041    0.136962    0.282403     0.007504
PD581   PD        0.168976    0.201597    0.284581     0.005394
PD582   PD        0.204221    0.173718    0.284944     0.005394
PD583   PD        0.207206    0.206494    0.255115     0.005394
AU584   AU        0.238728    0.170123    0.250537     0.007504
AU585   AU        0.237502    0.201982    0.285838     0.007504
AU586   AU        0.268052    0.169588    0.284897     0.007504
PD587   PD        0.269189    0.202924    0.252538     0.005394
AU588   AU        0.301838    0.169867    0.252765     0.007504
AU589   AU        0.300588    0.202043    0.285106     0.007504
PD590   PD        0.334394    0.169227    0.284579     0.005394
PD591   PD        0.335870    0.202894    0.252365     0.005394
AU592   AU        0.368345    0.170324    0.250856     0.007504
AU593   AU        0.367016    0.201866    0.285179     0.007504
AU594   AU        0.401904    0.171248    0.285608     0.007504
PD595   PD        0.403260    0.203282    0.252118     0.005394
PD596   PD        0.435652    0.170040    0.250400     0.005394
PD597   PD        0.434615    0.203840    0.283908     0.005394
PD598   PD        0.467281    0.172989    0.285827     0.005394
PD599   PD        0.467897    0.206115    0.249108     0.005394
PD600   PD        0.502634    0.170732    0.250990     0.005394
AU601   AU        0.500657    0.202294    0.286023     0.007504
PD602   PD        0.533993    0.171389    0.283359     0.005394
AU603   AU        0.534898    0.204698    0.251406     0.007504
AU604   AU        0.566890    0.168898    0.252727     0.007504
PD605   PD        0.565711    0.203043    0.285377     0.005394
AU606   AU        0.601947    0.170755    0.285182     0.007504
AU607   AU        0.600225    0.204077    0.252813     0.007504
AU608   AU        0.631188    0.170078    0.250546     0.007504
PD609   PD        0.635003    0.201453    0.282154     0.005394
AU610   AU        0.668838    0.168861    0.283838     0.007504
PD611   PD        0.667218    0.169933    0.223766     0.005394
AU612   AU        0.701915    0.202137    0.283582     0.007504
PD613   PD        0.105230    0.269666    0.290197     0.005394
PD614   PD        0.135596    0.237290    0.291840     0.005394
PD615   PD        0.138087    0.271335    0.256221     0.005394
PD616   PD        0.167432    0.234730    0.254373     0.005394
PD617   PD        0.166659    0.268444    0.290347     0.005394
AU618   AU        0.203641    0.237507    0.286622     0.007504
PD619   PD        0.202717    0.267513    0.250227     0.005394
PD620   PD        0.237257    0.235823    0.253078     0.005394
PD621   PD        0.236506    0.271530    0.285334     0.005394
PD622   PD        0.267892    0.238795    0.284252     0.005394
PD623   PD        0.269482    0.269122    0.253343     0.005394
AU624   AU        0.302394    0.238375    0.252302     0.007504
AU625   AU        0.302449    0.270777    0.286290     0.007504
PD626   PD        0.335502    0.236272    0.283414     0.005394
AU627   AU        0.335012    0.268982    0.252183     0.007504
AU628   AU        0.371496    0.237381    0.251586     0.007504
AU629   AU        0.369064    0.271089    0.284000     0.007504
AU630   AU        0.401998    0.235494    0.284799     0.007504
AU631   AU        0.403182    0.269429    0.251304     0.007504
PD632   PD        0.433322    0.239652    0.251296     0.005394
AU633   AU        0.433639    0.271611    0.286172     0.007504
AU634   AU        0.469159    0.237798    0.283471     0.007504
PD635   PD        0.468898    0.270607    0.250852     0.005394
AU636   AU        0.501844    0.237148    0.252548     0.007504
PD637   PD        0.501497    0.271217    0.280966     0.005394
PD638   PD        0.532818    0.233308    0.285480     0.005394
AU639   AU        0.535208    0.270767    0.250731     0.007504
AU640   AU        0.566963    0.234523    0.251323     0.007504
PD641   PD        0.566088    0.268742    0.285491     0.005394
PD642   PD        0.598916    0.238872    0.286775     0.005394
PD643   PD        0.601102    0.268806    0.254003     0.005394
PD644   PD        0.633497    0.236713    0.251625     0.005394
PD645   PD        0.633385    0.271370    0.285858     0.005394
PD646   PD        0.665684    0.237978    0.282872     0.005394
AU647   AU        0.666441    0.269796    0.251958     0.007504
PD648   PD        0.699270    0.239522    0.249793     0.005394
AU649   AU        0.700897    0.271721    0.283894     0.007504
PD650   PD        0.729997    0.237077    0.284109     0.005394
AU651   AU        0.732262    0.272186    0.249918     0.007504
PD652   PD        0.766205    0.273456    0.283749     0.005394
PD653   PD        0.099781    0.335896    0.289019     0.005394
PD654   PD        0.136994    0.303681    0.288386     0.005394
PD655   PD        0.136733    0.336014    0.251598     0.005394
PD656   PD        0.169186    0.301619    0.251795     0.005394
PD657   PD        0.171993    0.335693    0.285229     0.005394
AU658   AU        0.201816    0.301108    0.285207     0.007504
AU659   AU        0.202694    0.337980    0.252550     0.007504
PD660   PD        0.234845    0.301789    0.250737     0.005394
PD661   PD        0.234542    0.332798    0.285928     0.005394
PD662   PD        0.268377    0.300583    0.284093     0.005394
PD663   PD        0.268844    0.332332    0.251269     0.005394
PD664   PD        0.302120    0.300350    0.253127     0.005394
PD665   PD        0.302374    0.334770    0.287268     0.005394
AU666   AU        0.336030    0.303587    0.285743     0.007504
PD667   PD        0.337803    0.334105    0.252719     0.005394
AU668   AU        0.370940    0.301570    0.251564     0.007504
AU669   AU        0.369348    0.335512    0.283431     0.007504
AU670   AU        0.403506    0.304129    0.284569     0.007504
AU671   AU        0.401759    0.337225    0.251929     0.007504
AU672   AU        0.434410    0.303448    0.252981     0.007504
AU673   AU        0.436427    0.336793    0.286068     0.007504
PD674   PD        0.470023    0.304330    0.283797     0.005394
AU675   AU        0.469556    0.336193    0.252030     0.007504
AU676   AU        0.501999    0.305487    0.250132     0.007504
AU677   AU        0.500283    0.336725    0.285097     0.007504
AU678   AU        0.532878    0.303282    0.282676     0.007504
AU679   AU        0.533243    0.336807    0.252335     0.007504
PD680   PD        0.565607    0.301949    0.250534     0.005394
AU681   AU        0.568845    0.337046    0.285408     0.007504
PD682   PD        0.599328    0.302984    0.286325     0.005394
PD683   PD        0.602246    0.335812    0.250889     0.005394
PD684   PD        0.635451    0.302370    0.253578     0.005394
AU685   AU        0.633504    0.335683    0.285390     0.007504
PD686   PD        0.665993    0.303477    0.283638     0.005394
AU687   AU        0.667367    0.337454    0.251536     0.007504
AU688   AU        0.698731    0.303433    0.252366     0.007504
PD689   PD        0.699945    0.336255    0.284346     0.005394
AU690   AU        0.732924    0.304071    0.283073     0.007504
PD691   PD        0.734608    0.336610    0.251948     0.005394
PD692   PD        0.766735    0.339223    0.284851     0.005394
PD693   PD        0.069697    0.371259    0.289128     0.005394
PD694   PD        0.101018    0.368463    0.257131     0.005394
AU695   AU        0.102390    0.401880    0.288063     0.007504
PD696   PD        0.133861    0.369563    0.288507     0.005394
AU697   AU        0.134672    0.404969    0.255666     0.007504
PD698   PD        0.169790    0.369973    0.254170     0.005394
PD699   PD        0.167859    0.402445    0.288756     0.005394
PD700   PD        0.202528    0.371256    0.288574     0.005394
PD701   PD        0.201162    0.403413    0.256750     0.005394
PD702   PD        0.236118    0.371256    0.252555     0.005394
PD703   PD        0.235626    0.404384    0.287219     0.005394
PD704   PD        0.270794    0.365947    0.286320     0.005394
PD705   PD        0.271466    0.404102    0.254795     0.005394
PD706   PD        0.302163    0.368112    0.252159     0.005394
PD707   PD        0.301729    0.403538    0.285665     0.005394
PD708   PD        0.336557    0.368624    0.289252     0.005394
PD709   PD        0.335490    0.403801    0.251446     0.005394
PD710   PD        0.370038    0.370126    0.250555     0.005394
AU711   AU        0.369911    0.403069    0.286275     0.007504
AU712   AU        0.404519    0.369067    0.284060     0.007504
AU713   AU        0.402173    0.403610    0.251652     0.007504
AU714   AU        0.437196    0.369240    0.252860     0.007504
AU715   AU        0.435587    0.403064    0.285295     0.007504
AU716   AU        0.468538    0.368300    0.285359     0.007504
AU717   AU        0.468932    0.402664    0.254125     0.007504
AU718   AU        0.500145    0.368595    0.252560     0.007504
AU719   AU        0.501452    0.402367    0.284832     0.007504
AU720   AU        0.534716    0.369856    0.284346     0.007504
AU721   AU        0.534236    0.403388    0.253599     0.007504
PD722   PD        0.567758    0.369251    0.252209     0.005394
PD723   PD        0.570359    0.402713    0.286857     0.005394
AU724   AU        0.601625    0.368999    0.284047     0.007504
AU725   AU        0.602698    0.402182    0.251752     0.007504
PD726   PD        0.634996    0.368864    0.253354     0.005394
PD727   PD        0.634896    0.405536    0.286824     0.005394
PD728   PD        0.666081    0.368656    0.284066     0.005394
AU729   AU        0.668618    0.400754    0.252744     0.007504
PD730   PD        0.700661    0.369506    0.253493     0.005394
AU731   AU        0.700389    0.402722    0.284311     0.007504
AU732   AU        0.731773    0.367622    0.285752     0.007504
AU733   AU        0.730889    0.402771    0.251839     0.007504
PD734   PD        0.765956    0.301417    0.188066     0.005394
PD735   PD        0.764141    0.403672    0.285172     0.005394
PD736   PD        0.798418    0.373082    0.286364     0.005394
PD737   PD        0.072055    0.404076    0.255093     0.005394
PD738   PD        0.101428    0.437244    0.256620     0.005394
PD739   PD        0.102919    0.469896    0.287624     0.005394
PD740   PD        0.133789    0.437429    0.288156     0.005394
AU741   AU        0.134953    0.470077    0.256103     0.007504
AU742   AU        0.167324    0.436299    0.254257     0.007504
AU743   AU        0.170068    0.471774    0.286888     0.007504
AU744   AU        0.200705    0.439393    0.287946     0.007504
AU745   AU        0.201961    0.470375    0.254976     0.007504
AU746   AU        0.237575    0.436725    0.255567     0.007504
PD747   PD        0.234531    0.470766    0.286086     0.005394
PD748   PD        0.270326    0.437262    0.286480     0.005394
PD749   PD        0.270314    0.469371    0.254386     0.005394
PD750   PD        0.304660    0.438151    0.251128     0.005394
AU751   AU        0.303616    0.471364    0.287499     0.007504
PD752   PD        0.335966    0.437090    0.287607     0.005394
AU753   AU        0.334322    0.472205    0.254346     0.007504
AU754   AU        0.369037    0.438429    0.254975     0.007504
AU755   AU        0.368243    0.470803    0.285721     0.007504
AU756   AU        0.402139    0.436372    0.286322     0.007504
AU757   AU        0.402683    0.473151    0.253715     0.007504
AU758   AU        0.434364    0.438235    0.252679     0.007504
AU759   AU        0.435267    0.469299    0.285941     0.007504
AU760   AU        0.467442    0.436147    0.285534     0.007504
AU761   AU        0.467992    0.469754    0.253655     0.007504
AU762   AU        0.500157    0.436546    0.253198     0.007504
AU763   AU        0.500401    0.469157    0.286025     0.007504
AU764   AU        0.534401    0.435428    0.286528     0.007504
AU765   AU        0.533064    0.469159    0.253981     0.007504
PD766   PD        0.569420    0.436867    0.251680     0.005394
AU767   AU        0.567079    0.467665    0.284752     0.007504
AU768   AU        0.601786    0.436893    0.286035     0.007504
PD769   PD        0.602462    0.469285    0.254288     0.005394
PD770   PD        0.635567    0.435945    0.253444     0.005394
PD771   PD        0.634532    0.469890    0.284241     0.005394
AU772   AU        0.668205    0.436284    0.283950     0.007504
AU773   AU        0.668275    0.470353    0.252799     0.007504
AU774   AU        0.699976    0.437077    0.252618     0.007504
PD775   PD        0.700516    0.468401    0.286535     0.005394
AU776   AU        0.731008    0.435522    0.285413     0.007504
AU777   AU        0.733151    0.469849    0.252569     0.007504
PD778   PD        0.764376    0.436121    0.185282     0.005394
AU779   AU        0.766194    0.470437    0.285575     0.007504
PD780   PD        0.800370    0.438182    0.287709     0.005394
PD781   PD        0.069434    0.503929    0.289158     0.005394
AU782   AU        0.102926    0.501988    0.255987     0.007504
AU783   AU        0.103068    0.534744    0.287568     0.007504
AU784   AU        0.135970    0.502353    0.288829     0.007504
AU785   AU        0.137457    0.535508    0.255869     0.007504
AU786   AU        0.169787    0.502722    0.255435     0.007504
AU787   AU        0.169907    0.535768    0.289062     0.007504
PD788   PD        0.201487    0.503655    0.286518     0.005394
PD789   PD        0.198970    0.536788    0.255218     0.005394
PD790   PD        0.232683    0.503694    0.253995     0.005394
AU791   AU        0.234007    0.536601    0.285800     0.007504
AU792   AU        0.267351    0.501719    0.286930     0.007504
PD793   PD        0.268178    0.538175    0.255064     0.005394
PD794   PD        0.301326    0.504746    0.255584     0.005394
AU795   AU        0.301209    0.536973    0.286999     0.007504
AU796   AU        0.333732    0.505295    0.286398     0.007504
AU797   AU        0.335261    0.537455    0.252345     0.007504
PD798   PD        0.368663    0.504743    0.253402     0.005394
AU799   AU        0.368545    0.536450    0.287840     0.007504
AU800   AU        0.399677    0.503472    0.286010     0.007504
AU801   AU        0.401784    0.536867    0.253570     0.007504
AU802   AU        0.435138    0.502801    0.254335     0.007504
AU803   AU        0.433075    0.535905    0.285536     0.007504
AU804   AU        0.468066    0.501394    0.286265     0.007504
AU805   AU        0.468045    0.537137    0.252348     0.007504
PD806   PD        0.502708    0.505269    0.255463     0.005394
AU807   AU        0.502967    0.538377    0.286908     0.007504
AU808   AU        0.534687    0.503385    0.286182     0.007504
AU809   AU        0.535347    0.538898    0.254336     0.007504
AU810   AU        0.566318    0.504665    0.252654     0.007504
AU811   AU        0.569598    0.537130    0.284968     0.007504
AU812   AU        0.599996    0.503584    0.285303     0.007504
AU813   AU        0.601115    0.537392    0.251571     0.007504
PD814   PD        0.634974    0.504004    0.251101     0.005394
PD815   PD        0.632235    0.536867    0.287702     0.005394
PD816   PD        0.666328    0.506998    0.286011     0.005394
AU817   AU        0.665721    0.536343    0.253715     0.007504
AU818   AU        0.701159    0.503801    0.254500     0.007504
PD819   PD        0.699003    0.538582    0.286373     0.005394
PD820   PD        0.734128    0.504320    0.286333     0.005394
PD821   PD        0.732941    0.538136    0.254200     0.005394
PD822   PD        0.768198    0.507526    0.254507     0.005394
PD823   PD        0.765804    0.535305    0.287097     0.005394
PD824   PD        0.799229    0.502650    0.286703     0.005394
PD825   PD        0.098642    0.600940    0.287919     0.005394
AU826   AU        0.137417    0.569935    0.286725     0.007504
PD827   PD        0.132276    0.601901    0.256038     0.005394
AU828   AU        0.170426    0.568219    0.255490     0.007504
PD829   PD        0.168811    0.602631    0.286270     0.005394
PD830   PD        0.202588    0.569946    0.286216     0.005394
PD831   PD        0.202027    0.603214    0.253118     0.005394
PD832   PD        0.233197    0.570244    0.251089     0.005394
PD833   PD        0.234826    0.601145    0.285064     0.005394
PD834   PD        0.269044    0.568407    0.286352     0.005394
PD835   PD        0.270048    0.600686    0.252178     0.005394
PD836   PD        0.303796    0.568768    0.251418     0.005394
AU837   AU        0.302797    0.599731    0.286091     0.007504
AU838   AU        0.336266    0.568064    0.287507     0.007504
AU839   AU        0.336937    0.602376    0.252464     0.007504
AU840   AU        0.369369    0.569004    0.254119     0.007504
AU841   AU        0.367082    0.603031    0.286307     0.007504
AU842   AU        0.401204    0.571153    0.286250     0.007504
AU843   AU        0.401689    0.602879    0.252534     0.007504
AU844   AU        0.436857    0.569595    0.254178     0.007504
AU845   AU        0.434656    0.603828    0.285003     0.007504
PD846   PD        0.467400    0.569683    0.285338     0.005394
PD847   PD        0.469939    0.603414    0.253633     0.005394
PD848   PD        0.502859    0.570123    0.252126     0.005394
AU849   AU        0.501139    0.601736    0.286508     0.007504
AU850   AU        0.534958    0.570232    0.286743     0.007504
AU851   AU        0.534000    0.603273    0.252595     0.007504
AU852   AU        0.568480    0.569427    0.251800     0.007504
AU853   AU        0.568292    0.603195    0.285459     0.007504
PD854   PD        0.599217    0.571406    0.284488     0.005394
AU855   AU        0.600018    0.604049    0.253919     0.007504
PD856   PD        0.633445    0.570305    0.252724     0.005394
AU857   AU        0.632946    0.602353    0.286643     0.007504
PD858   PD        0.665363    0.568704    0.285962     0.005394
PD859   PD        0.667476    0.603165    0.254448     0.005394
AU860   AU        0.698668    0.569359    0.252972     0.007504
PD861   PD        0.700304    0.601604    0.288188     0.005394
PD862   PD        0.731757    0.570042    0.287625     0.005394
PD863   PD        0.734560    0.600470    0.252067     0.005394
PD864   PD        0.831833    0.530770    0.286875     0.005394
PD865   PD        0.132229    0.634469    0.288284     0.005394
PD866   PD        0.169980    0.634160    0.254099     0.005394
AU867   AU        0.170551    0.671271    0.283417     0.007504
PD868   PD        0.200370    0.636964    0.284873     0.005394
PD869   PD        0.204367    0.666239    0.253722     0.005394
PD870   PD        0.235807    0.634256    0.253704     0.005394
AU871   AU        0.236213    0.669336    0.287780     0.007504
PD872   PD        0.269412    0.633602    0.288525     0.005394
PD873   PD        0.268150    0.667872    0.253870     0.005394
PD874   PD        0.303292    0.636433    0.252313     0.005394
PD875   PD        0.300665    0.669204    0.286211     0.005394
PD876   PD        0.332800    0.634366    0.287132     0.005394
AU877   AU        0.335429    0.667269    0.255208     0.007504
PD878   PD        0.368301    0.634548    0.253783     0.005394
PD879   PD        0.369219    0.665764    0.286242     0.005394
AU880   AU        0.401575    0.634287    0.284469     0.007504
AU881   AU        0.401826    0.669250    0.253992     0.007504
AU882   AU        0.435856    0.637283    0.251652     0.007504
AU883   AU        0.435656    0.669788    0.287004     0.007504
PD884   PD        0.468823    0.634597    0.282829     0.005394
AU885   AU        0.467369    0.668556    0.252358     0.007504
PD886   PD        0.501437    0.638486    0.251883     0.005394
AU887   AU        0.498701    0.669284    0.284782     0.007504
AU888   AU        0.534236    0.637103    0.286643     0.007504
PD889   PD        0.534677    0.668842    0.253226     0.005394
PD890   PD        0.568805    0.635661    0.254475     0.005394
AU891   AU        0.569246    0.667923    0.285879     0.007504
AU892   AU        0.601500    0.635583    0.285675     0.007504
AU893   AU        0.599646    0.668544    0.253811     0.007504
AU894   AU        0.634185    0.634469    0.253272     0.007504
AU895   AU        0.635319    0.667507    0.285843     0.007504
AU896   AU        0.668216    0.633539    0.284907     0.007504
PD897   PD        0.667672    0.668181    0.249264     0.005394
PD898   PD        0.698944    0.635192    0.250173     0.005394
AU899   AU        0.699841    0.669706    0.284121     0.007504
AU900   AU        0.730007    0.633974    0.288998     0.007504
AU901   AU        0.204597    0.704260    0.286484     0.007504
AU902   AU        0.236706    0.702090    0.254122     0.007504
AU903   AU        0.239238    0.736119    0.285501     0.007504
PD904   PD        0.270532    0.704165    0.285651     0.005394
PD905   PD        0.269550    0.738455    0.251073     0.005394
PD906   PD        0.302939    0.702429    0.252508     0.005394
PD907   PD        0.302950    0.735658    0.288464     0.005394
PD908   PD        0.337669    0.703321    0.289337     0.005394
AU909   AU        0.335715    0.736857    0.255593     0.007504
PD910   PD        0.369510    0.702056    0.254913     0.005394
PD911   PD        0.371056    0.735796    0.285233     0.005394
PD912   PD        0.402624    0.699923    0.288524     0.005394
AU913   AU        0.403753    0.736664    0.253776     0.007504
AU914   AU        0.436238    0.701547    0.253449     0.007504
PD915   PD        0.436268    0.732519    0.286253     0.005394
AU916   AU        0.468930    0.702528    0.285942     0.007504
AU917   AU        0.466897    0.734631    0.254152     0.007504
PD918   PD        0.502070    0.703038    0.252575     0.005394
AU919   AU        0.502174    0.737790    0.286662     0.007504
AU920   AU        0.534697    0.701654    0.284408     0.007504
PD921   PD        0.533493    0.734670    0.253128     0.005394
AU922   AU        0.567376    0.701170    0.252741     0.007504
PD923   PD        0.567459    0.735664    0.286741     0.005394
AU924   AU        0.600912    0.701669    0.286763     0.007504
PD925   PD        0.598659    0.734194    0.253220     0.005394
PD926   PD        0.630581    0.700002    0.252673     0.005394
PD927   PD        0.631383    0.734852    0.283862     0.005394
AU928   AU        0.665370    0.700054    0.284113     0.007504
AU929   AU        0.266967    0.771685    0.290872     0.007504
PD930   PD        0.334879    0.770974    0.289952     0.005394
PD931   PD        0.368300    0.769754    0.258078     0.005394
PD932   PD        0.370264    0.801327    0.288377     0.005394
PD933   PD        0.401454    0.767297    0.287172     0.005394
PD934   PD        0.435813    0.768512    0.255082     0.005394
AU935   AU        0.435018    0.799417    0.286915     0.007504
AU936   AU        0.466942    0.767490    0.286923     0.007504
PD937   PD        0.499717    0.768318    0.252949     0.005394
PD938   PD        0.499865    0.799309    0.287267     0.005394
AU939   AU        0.536547    0.770567    0.285897     0.007504
PD940   PD        0.598120    0.768485    0.287054     0.005394
AU941   AU        0.302290    0.072613    0.353206     0.007504
PD942   PD        0.332932    0.069824    0.321876     0.005394
PD943   PD        0.402766    0.040111    0.350658     0.005394
PD944   PD        0.406158    0.008018    0.245530     0.005394
PD945   PD        0.436351    0.073028    0.353004     0.005394
PD946   PD        0.466301    0.071935    0.316369     0.005394
PD947   PD        0.502237    0.070448    0.353496     0.005394
AU948   AU        0.534959    0.071224    0.318373     0.007504
PD949   PD        0.534124    0.036153    0.351797     0.005394
PD950   PD        0.204331    0.137533    0.315945     0.005394
AU951   AU        0.234603    0.135584    0.352491     0.007504
AU952   AU        0.268450    0.101224    0.353550     0.007504
PD953   PD        0.268922    0.134894    0.319824     0.005394
PD954   PD        0.300691    0.102648    0.319073     0.005394
PD955   PD        0.301204    0.135829    0.353082     0.005394
PD956   PD        0.337015    0.105943    0.349315     0.005394
AU957   AU        0.336647    0.138599    0.316507     0.007504
PD958   PD        0.369258    0.102056    0.314343     0.005394
PD959   PD        0.368866    0.137287    0.348210     0.005394
PD960   PD        0.399544    0.102933    0.350372     0.005394
AU961   AU        0.403017    0.136757    0.316592     0.007504
AU962   AU        0.433656    0.105169    0.316467     0.007504
PD963   PD        0.434338    0.134160    0.351171     0.005394
PD964   PD        0.471306    0.102120    0.354986     0.005394
AU965   AU        0.468104    0.135227    0.317517     0.007504
AU966   AU        0.501204    0.103565    0.319749     0.007504
PD967   PD        0.502687    0.136736    0.351270     0.005394
PD968   PD        0.535585    0.104808    0.352717     0.005394
AU969   AU        0.533346    0.137213    0.318449     0.007504
PD970   PD        0.569077    0.105183    0.319048     0.005394
AU971   AU        0.567043    0.139142    0.350443     0.007504
PD972   PD        0.599677    0.105484    0.352407     0.005394
AU973   AU        0.600880    0.140404    0.317706     0.007504
AU974   AU        0.633330    0.137032    0.349689     0.007504
PD975   PD        0.664228    0.137042    0.318484     0.005394
PD976   PD        0.100614    0.202742    0.359313     0.005394
AU977   AU        0.172034    0.168147    0.319214     0.007504
PD978   PD        0.170282    0.202917    0.354718     0.005394
AU979   AU        0.202610    0.169871    0.351501     0.007504
PD980   PD        0.199708    0.204918    0.317554     0.005394
PD981   PD        0.235330    0.169899    0.319503     0.005394
PD982   PD        0.234986    0.201261    0.352198     0.005394
AU983   AU        0.266802    0.167882    0.353032     0.007504
AU984   AU        0.268785    0.201820    0.317391     0.007504
PD985   PD        0.298835    0.167808    0.319622     0.005394
PD986   PD        0.298875    0.201451    0.351466     0.005394
PD987   PD        0.335854    0.170052    0.352254     0.005394
PD988   PD        0.335037    0.203256    0.319210     0.005394
AU989   AU        0.369157    0.171285    0.317012     0.007504
AU990   AU        0.369945    0.202820    0.350413     0.007504
AU991   AU        0.402178    0.168281    0.350747     0.007504
PD992   PD        0.403227    0.203833    0.316856     0.005394
PD993   PD        0.436148    0.169748    0.317065     0.005394
AU994   AU        0.434018    0.202625    0.350604     0.007504
AU995   AU        0.469541    0.168241    0.350961     0.007504
AU996   AU        0.467155    0.204907    0.318436     0.007504
AU997   AU        0.499870    0.170328    0.317448     0.007504
AU998   AU        0.500644    0.203793    0.349329     0.007504
PD999   PD        0.529939    0.170128    0.349974     0.005394
AU1000   AU        0.533033    0.201895    0.317291     0.007504
AU1001   AU        0.566770    0.170582    0.316750     0.007504
AU1002   AU        0.565875    0.203736    0.348902     0.007504
PD1003   PD        0.598018    0.169453    0.350955     0.005394
AU1004   AU        0.600604    0.202730    0.318079     0.007504
AU1005   AU        0.634064    0.170252    0.317261     0.007504
PD1006   PD        0.633444    0.202983    0.349938     0.005394
AU1007   AU        0.667198    0.170488    0.349486     0.007504
PD1008   PD        0.664807    0.204913    0.315956     0.005394
PD1009   PD        0.704767    0.144327    0.333548     0.005394
PD1010   PD        0.766914    0.209639    0.281754     0.005394
PD1011   PD        0.733430    0.203595    0.316144     0.005394
PD1012   PD        0.100799    0.240265    0.327620     0.005394
AU1013   AU        0.137010    0.237455    0.354601     0.007504
AU1014   AU        0.136821    0.271214    0.321522     0.007504
PD1015   PD        0.168167    0.236090    0.321471     0.005394
AU1016   AU        0.170426    0.270671    0.354855     0.007504
PD1017   PD        0.204348    0.235702    0.353112     0.005394
AU1018   AU        0.203998    0.267904    0.319313     0.007504
PD1019   PD        0.235892    0.236798    0.320009     0.005394
AU1020   AU        0.237128    0.268291    0.355474     0.007504
PD1021   PD        0.268821    0.235295    0.352546     0.005394
AU1022   AU        0.267323    0.270630    0.318022     0.007504
AU1023   AU        0.301471    0.236465    0.316199     0.007504
PD1024   PD        0.301762    0.270368    0.350676     0.005394
AU1025   AU        0.335002    0.236456    0.350101     0.007504
PD1026   PD        0.337897    0.269726    0.316499     0.005394
AU1027   AU        0.367418    0.234933    0.317356     0.007504
AU1028   AU        0.365303    0.267887    0.350427     0.007504
AU1029   AU        0.402197    0.235992    0.350206     0.007504
AU1030   AU        0.399677    0.267784    0.315916     0.007504
AU1031   AU        0.434467    0.237339    0.318019     0.007504
AU1032   AU        0.435374    0.270283    0.350555     0.007504
PD1033   PD        0.468698    0.235385    0.354372     0.005394
PD1034   PD        0.470114    0.268655    0.316055     0.005394
PD1035   PD        0.499082    0.236838    0.318369     0.005394
AU1036   AU        0.500939    0.271392    0.349434     0.007504
AU1037   AU        0.535164    0.237118    0.350674     0.007504
AU1038   AU        0.532796    0.268818    0.316169     0.007504
PD1039   PD        0.567265    0.234550    0.317070     0.005394
AU1040   AU        0.566933    0.271688    0.352322     0.007504
AU1041   AU        0.599359    0.235019    0.351712     0.007504
AU1042   AU        0.600890    0.269674    0.319220     0.007504
AU1043   AU        0.633324    0.234795    0.316850     0.007504
PD1044   PD        0.636069    0.273800    0.350535     0.005394
PD1045   PD        0.667434    0.236462    0.351278     0.005394
PD1046   PD        0.667895    0.269616    0.317444     0.005394
AU1047   AU        0.700495    0.238112    0.316508     0.007504
PD1048   PD        0.701985    0.270007    0.352968     0.005394
PD1049   PD        0.732935    0.237877    0.348410     0.005394
AU1050   AU        0.733311    0.271285    0.316122     0.007504
PD1051   PD        0.764654    0.272426    0.349668     0.005394
PD1052   PD        0.073718    0.301066    0.353310     0.005394
PD1053   PD        0.069523    0.335815    0.319398     0.005394
PD1054   PD        0.105528    0.302841    0.321403     0.005394
AU1055   AU        0.104946    0.337548    0.352216     0.007504
AU1056   AU        0.136660    0.303857    0.354781     0.007504
PD1057   PD        0.137103    0.335335    0.320241     0.005394
AU1058   AU        0.169892    0.302147    0.321617     0.007504
PD1059   PD        0.169742    0.335523    0.353609     0.005394
AU1060   AU        0.206136    0.301930    0.352094     0.007504
PD1061   PD        0.203017    0.335638    0.316495     0.005394
AU1062   AU        0.234780    0.301451    0.317929     0.007504
PD1063   PD        0.234785    0.335862    0.352002     0.005394
AU1064   AU        0.269577    0.304043    0.353677     0.007504
PD1065   PD        0.268910    0.331613    0.320279     0.005394
PD1066   PD        0.301482    0.301890    0.317381     0.005394
PD1067   PD        0.301450    0.336962    0.352715     0.005394
AU1068   AU        0.333773    0.300898    0.349414     0.007504
PD1069   PD        0.335133    0.333488    0.318634     0.005394
PD1070   PD        0.369010    0.304202    0.317064     0.005394
AU1071   AU        0.368394    0.336027    0.351022     0.007504
AU1072   AU        0.400991    0.302132    0.351024     0.007504
AU1073   AU        0.401379    0.336551    0.317364     0.007504
AU1074   AU        0.433788    0.304497    0.319256     0.007504
AU1075   AU        0.434144    0.335076    0.350922     0.007504
AU1076   AU        0.467535    0.303804    0.351054     0.007504
AU1077   AU        0.468451    0.336866    0.318120     0.007504
AU1078   AU        0.502459    0.303002    0.316361     0.007504
AU1079   AU        0.502807    0.334675    0.350038     0.007504
AU1080   AU        0.533710    0.302585    0.349508     0.007504
AU1081   AU        0.534556    0.335118    0.317792     0.007504
PD1082   PD        0.566640    0.301961    0.316297     0.005394
AU1083   AU        0.567157    0.336827    0.352646     0.007504
PD1084   PD        0.601651    0.305176    0.351527     0.005394
AU1085   AU        0.601393    0.338260    0.319493     0.007504
PD1086   PD        0.634388    0.303912    0.318137     0.005394
AU1087   AU        0.634125    0.336411    0.351939     0.007504
AU1088   AU        0.667132    0.305383    0.351937     0.007504
AU1089   AU        0.667197    0.335446    0.317209     0.007504
AU1090   AU        0.699233    0.303738    0.318963     0.007504
AU1091   AU        0.700779    0.336661    0.349876     0.007504
PD1092   PD        0.732281    0.301664    0.352480     0.005394
PD1093   PD        0.734016    0.334773    0.315924     0.005394
PD1094   PD        0.764663    0.303610    0.319525     0.005394
PD1095   PD        0.763970    0.336404    0.351654     0.005394
PD1096   PD        0.799987    0.302649    0.354234     0.005394
AU1097   AU        0.798160    0.336974    0.317794     0.007504
PD1098   PD        0.068086    0.369433    0.352877     0.005394
PD1099   PD        0.070600    0.403749    0.320686     0.005394
AU1100   AU        0.103414    0.370621    0.321012     0.007504
AU1101   AU        0.102531    0.403195    0.353891     0.007504
AU1102   AU        0.136546    0.371817    0.353248     0.007504
AU1103   AU        0.136271    0.404307    0.320506     0.007504
PD1104   PD        0.169801    0.370096    0.319735     0.005394
PD1105   PD        0.170592    0.405038    0.351782     0.005394
AU1106   AU        0.201974    0.371156    0.351540     0.007504
AU1107   AU        0.200375    0.404763    0.318035     0.007504
PD1108   PD        0.235053    0.371066    0.319586     0.005394
PD1109   PD        0.231559    0.405493    0.351269     0.005394
PD1110   PD        0.266665    0.369232    0.353483     0.005394
PD1111   PD        0.269338    0.404120    0.318896     0.005394
PD1112   PD        0.301811    0.370028    0.321590     0.005394
AU1113   AU        0.301383    0.405550    0.353514     0.007504
PD1114   PD        0.334971    0.367648    0.351854     0.005394
AU1115   AU        0.334171    0.402688    0.320871     0.007504
AU1116   AU        0.369957    0.369238    0.318527     0.007504
AU1117   AU        0.367056    0.402335    0.352833     0.007504
AU1118   AU        0.403483    0.370031    0.351702     0.007504
AU1119   AU        0.402840    0.401310    0.318005     0.007504
AU1120   AU        0.434405    0.369127    0.318100     0.007504
AU1121   AU        0.437660    0.402963    0.350807     0.007504
PD1122   PD        0.467950    0.369359    0.349867     0.005394
AU1123   AU        0.468338    0.403742    0.317864     0.007504
AU1124   AU        0.501496    0.368987    0.320145     0.007504
AU1125   AU        0.500843    0.403830    0.351746     0.007504
AU1126   AU        0.535784    0.368482    0.350894     0.007504
AU1127   AU        0.533772    0.403050    0.319764     0.007504
AU1128   AU        0.567855    0.369255    0.319984     0.007504
AU1129   AU        0.567687    0.402780    0.351819     0.007504
AU1130   AU        0.600857    0.369194    0.352485     0.007504
AU1131   AU        0.601191    0.401660    0.318139     0.007504
AU1132   AU        0.634749    0.369790    0.316958     0.007504
PD1133   PD        0.637156    0.401918    0.352473     0.005394
AU1134   AU        0.667383    0.369447    0.350649     0.007504
AU1135   AU        0.666055    0.403952    0.317461     0.007504
AU1136   AU        0.698399    0.365768    0.317302     0.007504
AU1137   AU        0.700216    0.401741    0.349584     0.007504
AU1138   AU        0.731337    0.369155    0.350287     0.007504
AU1139   AU        0.731909    0.401676    0.318014     0.007504
PD1140   PD        0.765538    0.371310    0.317363     0.005394
PD1141   PD        0.765612    0.402019    0.348367     0.005394
PD1142   PD        0.801180    0.366277    0.351975     0.005394
AU1143   AU        0.800959    0.405004    0.320593     0.007504
AU1144   AU        0.073383    0.437605    0.353399     0.007504
PD1145   PD        0.072487    0.469242    0.320080     0.005394
PD1146   PD        0.103949    0.436580    0.320521     0.005394
AU1147   AU        0.105179    0.471355    0.351798     0.007504
AU1148   AU        0.136931    0.436322    0.354944     0.007504
AU1149   AU        0.136399    0.472071    0.321224     0.007504
PD1150   PD        0.167188    0.439174    0.319255     0.005394
AU1151   AU        0.167965    0.470775    0.352959     0.007504
PD1152   PD        0.199358    0.436928    0.351685     0.005394
PD1153   PD        0.203289    0.470199    0.320479     0.005394
AU1154   AU        0.234880    0.437747    0.318583     0.007504
AU1155   AU        0.236219    0.469847    0.352530     0.007504
AU1156   AU        0.269886    0.437913    0.351237     0.007504
AU1157   AU        0.268091    0.470953    0.320450     0.007504
AU1158   AU        0.303269    0.436794    0.318001     0.007504
AU1159   AU        0.302632    0.469373    0.351089     0.007504
AU1160   AU        0.334674    0.436415    0.351334     0.007504
AU1161   AU        0.337485    0.470195    0.318604     0.007504
AU1162   AU        0.368308    0.435576    0.319188     0.007504
AU1163   AU        0.369090    0.468954    0.352026     0.007504
AU1164   AU        0.400697    0.435229    0.351531     0.007504
PD1165   PD        0.400571    0.469768    0.318257     0.005394
AU1166   AU        0.434598    0.437523    0.321114     0.007504
AU1167   AU        0.434380    0.467866    0.352597     0.007504
AU1168   AU        0.468849    0.436528    0.353165     0.007504
AU1169   AU        0.466845    0.468760    0.319882     0.007504
AU1170   AU        0.501318    0.435600    0.319171     0.007504
AU1171   AU        0.501414    0.470414    0.349676     0.007504
AU1172   AU        0.534084    0.436153    0.350844     0.007504
AU1173   AU        0.534103    0.471056    0.318618     0.007504
AU1174   AU        0.567894    0.434112    0.319065     0.007504
PD1175   PD        0.567987    0.468445    0.351923     0.005394
AU1176   AU        0.600288    0.434614    0.353520     0.007504
PD1177   PD        0.597849    0.469084    0.318332     0.005394
AU1178   AU        0.634116    0.436045    0.318867     0.007504
AU1179   AU        0.632998    0.468805    0.353337     0.007504
PD1180   PD        0.667961    0.437404    0.351936     0.005394
PD1181   PD        0.667894    0.469647    0.316833     0.005394
AU1182   AU        0.699896    0.436214    0.318746     0.007504
PD1183   PD        0.699292    0.471434    0.350815     0.005394
PD1184   PD        0.732002    0.434669    0.350310     0.005394
AU1185   AU        0.732001    0.470198    0.317618     0.007504
AU1186   AU        0.763550    0.436859    0.317410     0.007504
PD1187   PD        0.763397    0.471128    0.351250     0.005394
PD1188   PD        0.796062    0.436845    0.353234     0.005394
PD1189   PD        0.798270    0.470754    0.318584     0.005394
AU1190   AU        0.069094    0.501966    0.353764     0.007504
PD1191   PD        0.069530    0.537672    0.321402     0.005394
AU1192   AU        0.102673    0.502596    0.320689     0.007504
AU1193   AU        0.104887    0.535475    0.351705     0.007504
PD1194   PD        0.138627    0.505160    0.353619     0.005394
AU1195   AU        0.137065    0.535996    0.319825     0.007504
AU1196   AU        0.170679    0.502715    0.320565     0.007504
PD1197   PD        0.169196    0.535584    0.352837     0.005394
AU1198   AU        0.201259    0.503157    0.353013     0.007504
AU1199   AU        0.201568    0.535760    0.318849     0.007504
AU1200   AU        0.233431    0.504425    0.319721     0.007504
AU1201   AU        0.234794    0.535239    0.352280     0.007504
AU1202   AU        0.268932    0.502278    0.351637     0.007504
PD1203   PD        0.269201    0.535158    0.320107     0.005394
AU1204   AU        0.302027    0.503268    0.321053     0.007504
AU1205   AU        0.302353    0.534818    0.351966     0.007504
AU1206   AU        0.335871    0.502942    0.351123     0.007504
AU1207   AU        0.333604    0.537708    0.319229     0.007504
AU1208   AU        0.368679    0.502350    0.318312     0.007504
AU1209   AU        0.368414    0.534289    0.351039     0.007504
AU1210   AU        0.401166    0.501844    0.351231     0.007504
AU1211   AU        0.401862    0.534014    0.319462     0.007504
AU1212   AU        0.435887    0.503368    0.320444     0.007504
AU1213   AU        0.433054    0.536290    0.351792     0.007504
AU1214   AU        0.468013    0.505174    0.352077     0.007504
AU1215   AU        0.469565    0.537078    0.316681     0.007504
AU1216   AU        0.500325    0.502893    0.317774     0.007504
AU1217   AU        0.501701    0.537153    0.350472     0.007504
AU1218   AU        0.535285    0.503427    0.351393     0.007504
AU1219   AU        0.534149    0.536303    0.318805     0.007504
AU1220   AU        0.568379    0.502352    0.317648     0.007504
AU1221   AU        0.566754    0.534589    0.352216     0.007504
AU1222   AU        0.598206    0.500468    0.353618     0.007504
PD1223   PD        0.600607    0.533794    0.321531     0.005394
AU1224   AU        0.633065    0.501097    0.320055     0.007504
PD1225   PD        0.631860    0.536282    0.351543     0.005394
AU1226   AU        0.666668    0.503645    0.352592     0.007504
PD1227   PD        0.665108    0.538941    0.319214     0.005394
PD1228   PD        0.701201    0.504216    0.320359     0.005394
PD1229   PD        0.699991    0.537028    0.355182     0.005394
PD1230   PD        0.731067    0.502069    0.353582     0.005394
AU1231   AU        0.732402    0.536271    0.319437     0.007504
AU1232   AU        0.764749    0.502744    0.320249     0.007504
AU1233   AU        0.764496    0.535437    0.355296     0.007504
PD1234   PD        0.796873    0.506054    0.353239     0.005394
PD1235   PD        0.796149    0.536566    0.319875     0.005394
PD1236   PD        0.069179    0.569888    0.353304     0.005394
PD1237   PD        0.103183    0.568947    0.318433     0.005394
AU1238   AU        0.102540    0.600900    0.352347     0.007504
PD1239   PD        0.138502    0.567992    0.352597     0.005394
AU1240   AU        0.135701    0.600594    0.318500     0.007504
PD1241   PD        0.170560    0.569158    0.318854     0.005394
PD1242   PD        0.167940    0.604231    0.352703     0.005394
PD1243   PD        0.203344    0.570497    0.351993     0.005394
PD1244   PD        0.200956    0.602014    0.320503     0.005394
AU1245   AU        0.235337    0.569481    0.319685     0.007504
PD1246   PD        0.236542    0.603174    0.351182     0.005394
AU1247   AU        0.269214    0.568987    0.354208     0.007504
PD1248   PD        0.269424    0.600825    0.319806     0.005394
PD1249   PD        0.301634    0.568832    0.320415     0.005394
AU1250   AU        0.302153    0.603089    0.352765     0.007504
AU1251   AU        0.335778    0.569116    0.353915     0.007504
AU1252   AU        0.334716    0.602668    0.318959     0.007504
AU1253   AU        0.367985    0.567847    0.320111     0.007504
AU1254   AU        0.369350    0.600999    0.352445     0.007504
AU1255   AU        0.401289    0.570246    0.353036     0.007504
PD1256   PD        0.399939    0.602426    0.321284     0.005394
AU1257   AU        0.434477    0.569775    0.318381     0.007504
AU1258   AU        0.433921    0.603891    0.353212     0.007504
AU1259   AU        0.466097    0.568294    0.351111     0.007504
AU1260   AU        0.467310    0.602398    0.320153     0.007504
PD1261   PD        0.502063    0.571184    0.318503     0.005394
PD1262   PD        0.501280    0.601693    0.351814     0.005394
AU1263   AU        0.534905    0.567955    0.352240     0.007504
AU1264   AU        0.534481    0.603519    0.318167     0.007504
AU1265   AU        0.566480    0.569216    0.317787     0.007504
AU1266   AU        0.566086    0.603489    0.353260     0.007504
AU1267   AU        0.599496    0.568674    0.352689     0.007504
AU1268   AU        0.599186    0.601558    0.320526     0.007504
PD1269   PD        0.632007    0.569779    0.319274     0.005394
PD1270   PD        0.633287    0.601915    0.353961     0.005394
PD1271   PD        0.664461    0.569920    0.354293     0.005394
AU1272   AU        0.666478    0.603268    0.321953     0.007504
AU1273   AU        0.698166    0.569589    0.321159     0.007504
PD1274   PD        0.698133    0.603157    0.353923     0.005394
PD1275   PD        0.731394    0.570163    0.353536     0.005394
PD1276   PD        0.734037    0.602488    0.321454     0.005394
PD1277   PD        0.766082    0.568388    0.317581     0.005394
PD1278   PD        0.764940    0.602243    0.353299     0.005394
PD1279   PD        0.799118    0.569351    0.351668     0.005394
PD1280   PD        0.105054    0.671687    0.352330     0.005394
PD1281   PD        0.136631    0.669710    0.317971     0.005394
AU1282   AU        0.169964    0.637881    0.320263     0.007504
PD1283   PD        0.170256    0.671426    0.353272     0.005394
PD1284   PD        0.201250    0.638246    0.352020     0.005394
PD1285   PD        0.203518    0.670910    0.319687     0.005394
AU1286   AU        0.236391    0.634137    0.317792     0.007504
AU1287   AU        0.234974    0.668217    0.352688     0.007504
PD1288   PD        0.270326    0.633733    0.351952     0.005394
AU1289   AU        0.268288    0.667910    0.321044     0.007504
AU1290   AU        0.302087    0.633221    0.319429     0.007504
AU1291   AU        0.302311    0.669142    0.351684     0.007504
AU1292   AU        0.335703    0.634265    0.351649     0.007504
AU1293   AU        0.332778    0.667750    0.317964     0.007504
AU1294   AU        0.369197    0.636620    0.317980     0.007504
PD1295   PD        0.370198    0.668135    0.352298     0.005394
PD1296   PD        0.401041    0.634349    0.353006     0.005394
PD1297   PD        0.399932    0.669352    0.320915     0.005394
AU1298   AU        0.434814    0.635914    0.317877     0.007504
PD1299   PD        0.436869    0.669278    0.350089     0.005394
AU1300   AU        0.466974    0.638239    0.352790     0.007504
AU1301   AU        0.467576    0.669624    0.319690     0.007504
AU1302   AU        0.501695    0.635321    0.319750     0.007504
AU1303   AU        0.501398    0.667603    0.353187     0.007504
PD1304   PD        0.534120    0.634288    0.352318     0.005394
PD1305   PD        0.532124    0.671606    0.318508     0.005394
PD1306   PD        0.566436    0.636738    0.317983     0.005394
PD1307   PD        0.563757    0.668697    0.352063     0.005394
PD1308   PD        0.599166    0.637345    0.351621     0.005394
AU1309   AU        0.599869    0.668489    0.318241     0.007504
PD1310   PD        0.634507    0.635609    0.320672     0.005394
AU1311   AU        0.633156    0.668443    0.353023     0.007504
AU1312   AU        0.666258    0.638507    0.355228     0.007504
AU1313   AU        0.665746    0.670689    0.320061     0.007504
AU1314   AU        0.697856    0.636239    0.320245     0.007504
PD1315   PD        0.698844    0.668516    0.349066     0.005394
AU1316   AU        0.734009    0.635948    0.353502     0.007504
PD1317   PD        0.801783    0.731143    0.320014     0.005394
PD1318   PD        0.172744    0.704745    0.317303     0.005394
PD1319   PD        0.206512    0.705009    0.355225     0.005394
PD1320   PD        0.205122    0.738157    0.321120     0.005394
AU1321   AU        0.237401    0.704092    0.319712     0.007504
PD1322   PD        0.237592    0.734314    0.354996     0.005394
PD1323   PD        0.268757    0.702227    0.352812     0.005394
AU1324   AU        0.270581    0.736554    0.319983     0.007504
AU1325   AU        0.302449    0.702078    0.320344     0.007504
AU1326   AU        0.300894    0.733314    0.352896     0.007504
AU1327   AU        0.337209    0.701189    0.353174     0.007504
PD1328   PD        0.335812    0.735916    0.322389     0.005394
PD1329   PD        0.368461    0.702563    0.318213     0.005394
PD1330   PD        0.369127    0.735425    0.353756     0.005394
PD1331   PD        0.401918    0.702279    0.352842     0.005394
PD1332   PD        0.403470    0.735195    0.318903     0.005394
PD1333   PD        0.437196    0.702076    0.320013     0.005394
AU1334   AU        0.434651    0.734227    0.353773     0.007504
PD1335   PD        0.469829    0.702203    0.353254     0.005394
AU1336   AU        0.468249    0.733868    0.321299     0.007504
AU1337   AU        0.499948    0.700744    0.317705     0.007504
PD1338   PD        0.501636    0.735106    0.351955     0.005394
PD1339   PD        0.532318    0.700210    0.352582     0.005394
AU1340   AU        0.535640    0.734701    0.317549     0.007504
PD1341   PD        0.565172    0.700236    0.319063     0.005394
PD1342   PD        0.563966    0.733952    0.352843     0.005394
PD1343   PD        0.597218    0.700011    0.352242     0.005394
PD1344   PD        0.601075    0.735994    0.318575     0.005394
PD1345   PD        0.634385    0.702180    0.319979     0.005394
PD1346   PD        0.631987    0.734939    0.352470     0.005394
PD1347   PD        0.663977    0.703760    0.352508     0.005394
AU1348   AU        0.664904    0.736384    0.317023     0.007504
PD1349   PD        0.698612    0.702581    0.319606     0.005394
PD1350   PD        0.270297    0.768920    0.354376     0.005394
AU1351   AU        0.303619    0.767888    0.321569     0.007504
PD1352   PD        0.304188    0.798796    0.351843     0.005394
PD1353   PD        0.334706    0.768800    0.353563     0.005394
PD1354   PD        0.338665    0.802678    0.322202     0.005394
PD1355   PD        0.370770    0.768414    0.321147     0.005394
PD1356   PD        0.368027    0.800629    0.353284     0.005394
AU1357   AU        0.402806    0.766883    0.353301     0.007504
PD1358   PD        0.403778    0.800785    0.321602     0.005394
AU1359   AU        0.434916    0.766380    0.319322     0.007504
PD1360   PD        0.434571    0.798387    0.356662     0.005394
AU1361   AU        0.468499    0.768717    0.354021     0.007504
AU1362   AU        0.466746    0.798228    0.320496     0.007504
AU1363   AU        0.501528    0.768225    0.320738     0.007504
PD1364   PD        0.502103    0.804262    0.355427     0.005394
AU1365   AU        0.535305    0.768498    0.352764     0.007504
AU1366   AU        0.533405    0.801629    0.319697     0.007504
AU1367   AU        0.567565    0.769528    0.318695     0.007504
PD1368   PD        0.565444    0.800978    0.356609     0.005394
PD1369   PD        0.600413    0.770337    0.351496     0.005394
PD1370   PD        0.268069    0.068094    0.387399     0.005394
PD1371   PD        0.300592    0.069840    0.417105     0.005394
PD1372   PD        0.337670    0.073249    0.383193     0.005394
AU1373   AU        0.367199    0.072839    0.418931     0.007504
PD1374   PD        0.399088    0.036832    0.420359     0.005394
PD1375   PD        0.402158    0.072467    0.387713     0.005394
PD1376   PD        0.408101    0.002441    0.375122     0.005394
AU1377   AU        0.432342    0.070376    0.419439     0.007504
AU1378   AU        0.465597    0.037551    0.423652     0.007504
PD1379   PD        0.465434    0.070521    0.388083     0.005394
PD1380   PD        0.500473    0.068665    0.419653     0.005394
PD1381   PD        0.533437    0.068471    0.387404     0.005394
AU1382   AU        0.567510    0.069028    0.420032     0.007504
PD1383   PD        0.602449    0.070050    0.383457     0.005394
PD1384   PD        0.171757    0.136349    0.419052     0.005394
AU1385   AU        0.205577    0.100830    0.419843     0.007504
PD1386   PD        0.197548    0.037278    0.351888     0.005394
PD1387   PD        0.236556    0.103728    0.386421     0.005394
PD1388   PD        0.234168    0.136865    0.419951     0.005394
PD1389   PD        0.267732    0.105663    0.418562     0.005394
PD1390   PD        0.270218    0.136144    0.384435     0.005394
PD1391   PD        0.303304    0.103859    0.387399     0.005394
PD1392   PD        0.302105    0.136468    0.416513     0.005394
AU1393   AU        0.334757    0.105988    0.420571     0.007504
PD1394   PD        0.333621    0.137756    0.385859     0.005394
PD1395   PD        0.368980    0.105956    0.385260     0.005394
PD1396   PD        0.368930    0.136099    0.420915     0.005394
PD1397   PD        0.402934    0.104807    0.418477     0.005394
PD1398   PD        0.402626    0.136279    0.385678     0.005394
PD1399   PD        0.433660    0.101969    0.387250     0.005394
PD1400   PD        0.432910    0.135799    0.419557     0.005394
PD1401   PD        0.468459    0.102196    0.420828     0.005394
PD1402   PD        0.470083    0.136139    0.384598     0.005394
PD1403   PD        0.504423    0.103912    0.383794     0.005394
PD1404   PD        0.501350    0.134254    0.417133     0.005394
PD1405   PD        0.537209    0.103696    0.417107     0.005394
PD1406   PD        0.536180    0.139491    0.384430     0.005394
PD1407   PD        0.567014    0.101657    0.383995     0.005394
PD1408   PD        0.570475    0.134161    0.418500     0.005394
PD1409   PD        0.597996    0.106792    0.414641     0.005394
PD1410   PD        0.597731    0.137795    0.384415     0.005394
PD1411   PD        0.632794    0.103676    0.387282     0.005394
PD1412   PD        0.632483    0.138795    0.417379     0.005394
PD1413   PD        0.667261    0.104618    0.415549     0.005394
PD1414   PD        0.665725    0.136015    0.380028     0.005394
PD1415   PD        0.741063    0.140800    0.384501     0.005394
PD1416   PD        0.021616    0.220941    0.464569     0.005394
PD1417   PD        0.135504    0.135193    0.449983     0.005394
PD1418   PD        0.137610    0.203010    0.386062     0.005394
PD1419   PD        0.170494    0.170998    0.387399     0.005394
PD1420   PD        0.171540    0.205116    0.419331     0.005394
PD1421   PD        0.203329    0.172262    0.418915     0.005394
AU1422   AU        0.204878    0.203041    0.384977     0.007504
AU1423   AU        0.234803    0.168654    0.385472     0.007504
AU1424   AU        0.234994    0.202627    0.418797     0.007504
AU1425   AU        0.269737    0.169141    0.419627     0.007504
PD1426   PD        0.268259    0.202205    0.386181     0.005394
AU1427   AU        0.301159    0.169046    0.384371     0.007504
PD1428   PD        0.299885    0.201466    0.419705     0.005394
PD1429   PD        0.334893    0.169407    0.417822     0.005394
PD1430   PD        0.332460    0.200841    0.384485     0.005394
AU1431   AU        0.367964    0.169375    0.384652     0.007504
AU1432   AU        0.369877    0.201948    0.420433     0.007504
AU1433   AU        0.403184    0.167268    0.420748     0.007504
AU1434   AU        0.399718    0.203129    0.385698     0.007504
PD1435   PD        0.435223    0.168218    0.385806     0.005394
AU1436   AU        0.434449    0.205384    0.418332     0.007504
PD1437   PD        0.468816    0.170585    0.414861     0.005394
PD1438   PD        0.468120    0.201720    0.383557     0.005394
PD1439   PD        0.501897    0.170663    0.382465     0.005394
PD1440   PD        0.503909    0.200574    0.418549     0.005394
PD1441   PD        0.535973    0.169063    0.420606     0.005394
PD1442   PD        0.532055    0.202033    0.383560     0.005394
PD1443   PD        0.567435    0.170619    0.382532     0.005394
PD1444   PD        0.570009    0.200940    0.418830     0.005394
PD1445   PD        0.598449    0.170803    0.418972     0.005394
PD1446   PD        0.600249    0.201617    0.383863     0.005394
PD1447   PD        0.629799    0.168920    0.383551     0.005394
PD1448   PD        0.630346    0.200210    0.419252     0.005394
PD1449   PD        0.664688    0.171170    0.418376     0.005394
PD1450   PD        0.664134    0.203780    0.383432     0.005394
PD1451   PD        0.698253    0.166846    0.384713     0.005394
PD1452   PD        0.699783    0.203361    0.419281     0.005394
PD1453   PD        0.733592    0.171889    0.417534     0.005394
PD1454   PD        0.729233    0.205330    0.382479     0.005394
PD1455   PD        0.796370    0.236276    0.416266     0.005394
PD1456   PD        0.033313    0.234306    0.381874     0.005394
PD1457   PD        0.103728    0.236756    0.392017     0.005394
PD1458   PD        0.106100    0.273739    0.422459     0.005394
PD1459   PD        0.137138    0.236963    0.421142     0.005394
AU1460   AU        0.135062    0.273824    0.388480     0.007504
PD1461   PD        0.167116    0.238883    0.388205     0.005394
AU1462   AU        0.168649    0.269489    0.418097     0.007504
AU1463   AU        0.204012    0.238267    0.418372     0.007504
AU1464   AU        0.203040    0.268641    0.386033     0.007504
PD1465   PD        0.237311    0.236581    0.384306     0.005394
AU1466   AU        0.237228    0.268719    0.419863     0.007504
AU1467   AU        0.268005    0.236272    0.417561     0.007504
AU1468   AU        0.270296    0.269377    0.386973     0.007504
PD1469   PD        0.302139    0.235415    0.384758     0.005394
AU1470   AU        0.301358    0.267582    0.421429     0.007504
PD1471   PD        0.334416    0.233906    0.419710     0.005394
PD1472   PD        0.334751    0.266861    0.383765     0.005394
AU1473   AU        0.367448    0.237401    0.384093     0.007504
PD1474   PD        0.367105    0.265713    0.418041     0.005394
PD1475   PD        0.401160    0.236825    0.417694     0.005394
PD1476   PD        0.403145    0.268039    0.382784     0.005394
AU1477   AU        0.434051    0.235604    0.383619     0.007504
AU1478   AU        0.434251    0.267736    0.420779     0.007504
AU1479   AU        0.469923    0.235631    0.416330     0.007504
AU1480   AU        0.467857    0.270049    0.385011     0.007504
AU1481   AU        0.502271    0.235822    0.383037     0.007504
AU1482   AU        0.501122    0.268504    0.415802     0.007504
AU1483   AU        0.535237    0.236312    0.419134     0.007504
PD1484   PD        0.533182    0.268855    0.384452     0.005394
AU1485   AU        0.565147    0.238411    0.383289     0.007504
AU1486   AU        0.567278    0.270825    0.417540     0.007504
PD1487   PD        0.599941    0.237287    0.417650     0.005394
PD1488   PD        0.600487    0.271724    0.382388     0.005394
PD1489   PD        0.632718    0.235559    0.386085     0.005394
PD1490   PD        0.635994    0.271299    0.418623     0.005394
PD1491   PD        0.669302    0.234645    0.418829     0.005394
PD1492   PD        0.667156    0.269774    0.385676     0.005394
PD1493   PD        0.703565    0.234820    0.384363     0.005394
AU1494   AU        0.701886    0.269233    0.415467     0.007504
PD1495   PD        0.733311    0.237519    0.417624     0.005394
AU1496   AU        0.733231    0.269531    0.383536     0.007504
AU1497   AU        0.763689    0.236752    0.384674     0.007504
AU1498   AU        0.766755    0.270257    0.418428     0.007504
PD1499   PD        0.796160    0.271384    0.386107     0.005394
PD1500   PD        0.073536    0.306286    0.420097     0.005394
PD1501   PD        0.070165    0.337009    0.383916     0.005394
PD1502   PD        0.103985    0.306323    0.386683     0.005394
PD1503   PD        0.103667    0.337537    0.417341     0.005394
PD1504   PD        0.138825    0.303731    0.419750     0.005394
PD1505   PD        0.135534    0.337668    0.386981     0.005394
AU1506   AU        0.171531    0.303414    0.386775     0.007504
AU1507   AU        0.169719    0.335410    0.420033     0.007504
AU1508   AU        0.203989    0.301002    0.420152     0.007504
PD1509   PD        0.201416    0.336685    0.386667     0.005394
PD1510   PD        0.235573    0.301754    0.386359     0.005394
PD1511   PD        0.234612    0.334691    0.420162     0.005394
PD1512   PD        0.268596    0.303006    0.419630     0.005394
PD1513   PD        0.269192    0.336561    0.389221     0.005394
PD1514   PD        0.302109    0.301570    0.388737     0.005394
AU1515   AU        0.300268    0.334809    0.421180     0.007504
AU1516   AU        0.335231    0.301375    0.418148     0.007504
PD1517   PD        0.333045    0.335443    0.384401     0.005394
AU1518   AU        0.368216    0.301100    0.384147     0.007504
PD1519   PD        0.370019    0.334938    0.418254     0.005394
AU1520   AU        0.400610    0.301500    0.418890     0.007504
AU1521   AU        0.402258    0.334859    0.383110     0.007504
AU1522   AU        0.434591    0.302525    0.384343     0.007504
AU1523   AU        0.434920    0.335911    0.418597     0.007504
AU1524   AU        0.466562    0.300637    0.418424     0.007504
AU1525   AU        0.466847    0.335148    0.384784     0.007504
AU1526   AU        0.500569    0.302185    0.384974     0.007504
AU1527   AU        0.500353    0.336270    0.418918     0.007504
AU1528   AU        0.535725    0.302019    0.417020     0.007504
AU1529   AU        0.534604    0.334387    0.386481     0.007504
AU1530   AU        0.567907    0.303168    0.384669     0.007504
AU1531   AU        0.567641    0.333545    0.420719     0.007504
PD1532   PD        0.602065    0.301464    0.418224     0.005394
AU1533   AU        0.598637    0.335077    0.386094     0.007504
AU1534   AU        0.633296    0.306808    0.385004     0.007504
AU1535   AU        0.633317    0.337062    0.420039     0.007504
PD1536   PD        0.669062    0.304146    0.417228     0.005394
AU1537   AU        0.667895    0.335710    0.384561     0.007504
PD1538   PD        0.701209    0.303378    0.385393     0.005394
AU1539   AU        0.700884    0.337749    0.418119     0.007504
PD1540   PD        0.733665    0.305534    0.418930     0.005394
AU1541   AU        0.731158    0.337222    0.385022     0.007504
PD1542   PD        0.763091    0.304584    0.383754     0.005394
PD1543   PD        0.763480    0.335648    0.416811     0.005394
PD1544   PD        0.797077    0.306491    0.419153     0.005394
AU1545   AU        0.795906    0.336419    0.384393     0.007504
AU1546   AU        0.037023    0.402419    0.416933     0.007504
PD1547   PD        0.069188    0.369737    0.416016     0.005394
AU1548   AU        0.072685    0.403332    0.387419     0.007504
AU1549   AU        0.101895    0.369702    0.384039     0.007504
AU1550   AU        0.103730    0.401941    0.419566     0.007504
PD1551   PD        0.136302    0.367904    0.415810     0.005394
AU1552   AU        0.136233    0.402684    0.386816     0.007504
PD1553   PD        0.171706    0.367954    0.387294     0.005394
PD1554   PD        0.168812    0.402817    0.419728     0.005394
PD1555   PD        0.202767    0.369330    0.420811     0.005394
AU1556   AU        0.202268    0.404115    0.385460     0.007504
AU1557   AU        0.235567    0.371002    0.385164     0.007504
PD1558   PD        0.234775    0.405516    0.419464     0.005394
AU1559   AU        0.267259    0.370824    0.421400     0.007504
AU1560   AU        0.267464    0.403537    0.386091     0.007504
AU1561   AU        0.300583    0.369666    0.387378     0.007504
PD1562   PD        0.303040    0.402360    0.420085     0.005394
PD1563   PD        0.333546    0.367790    0.420341     0.005394
AU1564   AU        0.336008    0.403579    0.385007     0.007504
PD1565   PD        0.368500    0.369871    0.384119     0.005394
AU1566   AU        0.368360    0.402365    0.420421     0.007504
PD1567   PD        0.401850    0.369073    0.419250     0.005394
PD1568   PD        0.402073    0.402846    0.388126     0.005394
AU1569   AU        0.435104    0.369121    0.383458     0.007504
AU1570   AU        0.435459    0.402143    0.418689     0.007504
PD1571   PD        0.468927    0.369793    0.418452     0.005394
PD1572   PD        0.469210    0.402401    0.384864     0.005394
AU1573   AU        0.502802    0.369531    0.385829     0.007504
AU1574   AU        0.501040    0.404279    0.419330     0.007504
AU1575   AU        0.533740    0.367364    0.418076     0.007504
AU1576   AU        0.535319    0.402588    0.384567     0.007504
PD1577   PD        0.565691    0.368357    0.385460     0.005394
AU1578   AU        0.567082    0.404062    0.419598     0.007504
PD1579   PD        0.600143    0.369356    0.418810     0.005394
AU1580   AU        0.600894    0.402186    0.384820     0.007504
PD1581   PD        0.633410    0.369701    0.384632     0.005394
AU1582   AU        0.634627    0.402691    0.416680     0.007504
AU1583   AU        0.665867    0.368761    0.418087     0.007504
PD1584   PD        0.667380    0.403821    0.386784     0.005394
AU1585   AU        0.701239    0.369491    0.383929     0.007504
AU1586   AU        0.700743    0.401856    0.418917     0.007504
AU1587   AU        0.733680    0.369021    0.418522     0.007504
PD1588   PD        0.730931    0.402136    0.384411     0.005394
AU1589   AU        0.764715    0.370672    0.382121     0.007504
PD1590   PD        0.763687    0.402885    0.418001     0.005394
PD1591   PD        0.795279    0.368285    0.418448     0.005394
AU1592   AU        0.797921    0.402096    0.384812     0.007504
PD1593   PD        0.825847    0.401798    0.418725     0.005394
PD1594   PD        0.036702    0.435532    0.385368     0.005394
PD1595   PD        0.036793    0.466543    0.418329     0.005394
PD1596   PD        0.071189    0.434347    0.419891     0.005394
PD1597   PD        0.070801    0.467993    0.386265     0.005394
AU1598   AU        0.104081    0.435672    0.386211     0.007504
PD1599   PD        0.103244    0.469965    0.418881     0.005394
AU1600   AU        0.135965    0.435082    0.419839     0.007504
AU1601   AU        0.134748    0.470815    0.387220     0.007504
AU1602   AU        0.169285    0.437349    0.386955     0.007504
AU1603   AU        0.166469    0.469519    0.420431     0.007504
PD1604   PD        0.199569    0.435296    0.421288     0.005394
PD1605   PD        0.203057    0.468742    0.385713     0.005394
AU1606   AU        0.235419    0.436862    0.384547     0.007504
PD1607   PD        0.234444    0.469408    0.419301     0.005394
PD1608   PD        0.268993    0.434980    0.417944     0.005394
AU1609   AU        0.268127    0.469772    0.385057     0.007504
PD1610   PD        0.300498    0.436118    0.385792     0.005394
AU1611   AU        0.299977    0.470805    0.419229     0.007504
AU1612   AU        0.334904    0.435882    0.419095     0.007504
PD1613   PD        0.335585    0.469903    0.385519     0.005394
PD1614   PD        0.367059    0.436964    0.384292     0.005394
AU1615   AU        0.367867    0.469960    0.418775     0.007504
AU1616   AU        0.402270    0.437008    0.420190     0.007504
AU1617   AU        0.401065    0.469072    0.385063     0.007504
AU1618   AU        0.433810    0.436415    0.384941     0.007504
AU1619   AU        0.433531    0.470176    0.420284     0.007504
AU1620   AU        0.466342    0.436403    0.417162     0.007504
AU1621   AU        0.466762    0.469330    0.382960     0.007504
PD1622   PD        0.500844    0.437427    0.383713     0.005394
AU1623   AU        0.502376    0.470676    0.418253     0.007504
PD1624   PD        0.535842    0.436057    0.420516     0.005394
PD1625   PD        0.533319    0.470861    0.384943     0.005394
AU1626   AU        0.567556    0.437167    0.386013     0.007504
AU1627   AU        0.568489    0.469910    0.420664     0.007504
AU1628   AU        0.600277    0.435920    0.419006     0.007504
PD1629   PD        0.601738    0.468683    0.387433     0.005394
PD1630   PD        0.631729    0.435100    0.382196     0.005394
AU1631   AU        0.634231    0.468783    0.418519     0.007504
AU1632   AU        0.667064    0.437101    0.420146     0.007504
PD1633   PD        0.666538    0.470129    0.384631     0.005394
PD1634   PD        0.699150    0.435040    0.385213     0.005394
AU1635   AU        0.701938    0.469473    0.419288     0.007504
AU1636   AU        0.732274    0.434665    0.419797     0.007504
AU1637   AU        0.730969    0.466635    0.383337     0.007504
PD1638   PD        0.763395    0.432943    0.384788     0.005394
PD1639   PD        0.764930    0.468055    0.416532     0.005394
AU1640   AU        0.796344    0.435449    0.417082     0.007504
AU1641   AU        0.797516    0.469295    0.382339     0.007504
AU1642   AU        0.827432    0.435716    0.385050     0.007504
PD1643   PD        0.826257    0.470137    0.418200     0.005394
PD1644   PD        0.067141    0.502845    0.421750     0.005394
PD1645   PD        0.071167    0.533508    0.387592     0.005394
PD1646   PD        0.103242    0.504740    0.385662     0.005394
AU1647   AU        0.102864    0.537298    0.419273     0.007504
AU1648   AU        0.135892    0.503820    0.419714     0.007504
PD1649   PD        0.136734    0.537909    0.386529     0.005394
AU1650   AU        0.168590    0.502886    0.385505     0.007504
AU1651   AU        0.168376    0.537058    0.419651     0.007504
PD1652   PD        0.200556    0.504402    0.418111     0.005394
AU1653   AU        0.200496    0.537039    0.384428     0.007504
AU1654   AU        0.233942    0.502488    0.383867     0.007504
AU1655   AU        0.234754    0.535998    0.417757     0.007504
PD1656   PD        0.267359    0.500504    0.419771     0.005394
AU1657   AU        0.269283    0.535997    0.387122     0.007504
PD1658   PD        0.301638    0.501219    0.384209     0.005394
AU1659   AU        0.302279    0.534112    0.421983     0.007504
AU1660   AU        0.333358    0.502156    0.419151     0.007504
AU1661   AU        0.336168    0.534626    0.383986     0.007504
AU1662   AU        0.368920    0.502386    0.384515     0.007504
PD1663   PD        0.367325    0.535602    0.420079     0.005394
AU1664   AU        0.400818    0.502846    0.418928     0.007504
AU1665   AU        0.402179    0.535322    0.385045     0.007504
AU1666   AU        0.432993    0.502069    0.383797     0.007504
AU1667   AU        0.432218    0.534726    0.419197     0.007504
AU1668   AU        0.468571    0.502328    0.418736     0.007504
AU1669   AU        0.465843    0.536152    0.385653     0.007504
AU1670   AU        0.500997    0.502201    0.383199     0.007504
AU1671   AU        0.501345    0.535982    0.417267     0.007504
AU1672   AU        0.536157    0.501588    0.419023     0.007504
PD1673   PD        0.533502    0.534902    0.385159     0.005394
AU1674   AU        0.568053    0.501262    0.385541     0.007504
AU1675   AU        0.568604    0.534895    0.418449     0.007504
AU1676   AU        0.601139    0.502711    0.420737     0.007504
PD1677   PD        0.599040    0.535003    0.385414     0.005394
AU1678   AU        0.632594    0.502106    0.384735     0.007504
AU1679   AU        0.633588    0.536857    0.419244     0.007504
AU1680   AU        0.667296    0.501681    0.418065     0.007504
AU1681   AU        0.666895    0.535668    0.386961     0.007504
AU1682   AU        0.700046    0.502608    0.385311     0.007504
AU1683   AU        0.698414    0.534802    0.419553     0.007504
AU1684   AU        0.731899    0.502649    0.418094     0.007504
PD1685   PD        0.731909    0.537768    0.387159     0.005394
AU1686   AU        0.762577    0.502276    0.386785     0.007504
PD1687   PD        0.763889    0.536192    0.418569     0.005394
PD1688   PD        0.797974    0.502911    0.417271     0.005394
PD1689   PD        0.799520    0.536998    0.385843     0.005394
AU1690   AU        0.068298    0.567304    0.416158     0.007504
PD1691   PD        0.073222    0.602261    0.386708     0.005394
PD1692   PD        0.104231    0.567936    0.384215     0.005394
AU1693   AU        0.103181    0.600285    0.420432     0.007504
AU1694   AU        0.134193    0.567740    0.419350     0.007504
AU1695   AU        0.136963    0.601461    0.384609     0.007504
AU1696   AU        0.169462    0.569744    0.385670     0.007504
PD1697   PD        0.169829    0.601149    0.417424     0.005394
AU1698   AU        0.202880    0.568517    0.418835     0.007504
PD1699   PD        0.203271    0.601934    0.387433     0.005394
PD1700   PD        0.234705    0.567322    0.385598     0.005394
PD1701   PD        0.235579    0.599430    0.419745     0.005394
AU1702   AU        0.269227    0.566401    0.420245     0.007504
PD1703   PD        0.265790    0.600937    0.388923     0.005394
PD1704   PD        0.302044    0.566407    0.387990     0.005394
PD1705   PD        0.301708    0.601692    0.419466     0.005394
AU1706   AU        0.332990    0.567978    0.419763     0.007504
AU1707   AU        0.336046    0.602065    0.386976     0.007504
AU1708   AU        0.368805    0.567190    0.386981     0.007504
AU1709   AU        0.371262    0.601741    0.418217     0.007504
AU1710   AU        0.401579    0.568958    0.420272     0.007504
PD1711   PD        0.405191    0.603548    0.386160     0.005394
PD1712   PD        0.436349    0.569422    0.384721     0.005394
AU1713   AU        0.435525    0.602638    0.418796     0.007504
AU1714   AU        0.467750    0.567501    0.417059     0.007504
AU1715   AU        0.468472    0.602477    0.383369     0.007504
AU1716   AU        0.499604    0.570101    0.384163     0.007504
PD1717   PD        0.498655    0.603237    0.421367     0.005394
PD1718   PD        0.533857    0.569898    0.418861     0.005394
AU1719   AU        0.533237    0.602452    0.385817     0.007504
PD1720   PD        0.565965    0.570029    0.387372     0.005394
PD1721   PD        0.566812    0.603311    0.419877     0.005394
PD1722   PD        0.601945    0.569039    0.422053     0.005394
PD1723   PD        0.600394    0.602074    0.384471     0.005394
AU1724   AU        0.634302    0.568862    0.386801     0.007504
AU1725   AU        0.634811    0.601607    0.419786     0.007504
AU1726   AU        0.667597    0.568631    0.417309     0.007504
AU1727   AU        0.667491    0.600881    0.386520     0.007504
PD1728   PD        0.697151    0.569082    0.385937     0.005394
PD1729   PD        0.698374    0.602348    0.418780     0.005394
AU1730   AU        0.732394    0.568449    0.418834     0.007504
AU1731   AU        0.732679    0.602945    0.388200     0.007504
PD1732   PD        0.767065    0.566577    0.387825     0.005394
PD1733   PD        0.764963    0.599685    0.419659     0.005394
AU1734   AU        0.799576    0.565598    0.420395     0.007504
PD1735   PD        0.799319    0.599982    0.385878     0.005394
PD1736   PD        0.102362    0.635734    0.384763     0.005394
PD1737   PD        0.068912    0.671193    0.457978     0.005394
PD1738   PD        0.136560    0.630618    0.421236     0.005394
PD1739   PD        0.130762    0.666215    0.392098     0.005394
PD1740   PD        0.169164    0.632767    0.385526     0.005394
PD1741   PD        0.169071    0.669035    0.415228     0.005394
AU1742   AU        0.201317    0.635842    0.418925     0.007504
PD1743   PD        0.204505    0.669103    0.386731     0.005394
PD1744   PD        0.234768    0.636013    0.384559     0.005394
AU1745   AU        0.235337    0.668786    0.420784     0.007504
AU1746   AU        0.266417    0.635258    0.418240     0.007504
PD1747   PD        0.270495    0.671086    0.384673     0.005394
AU1748   AU        0.302260    0.637409    0.384619     0.007504
AU1749   AU        0.302307    0.667245    0.418693     0.007504
PD1750   PD        0.336523    0.635070    0.418157     0.005394
PD1751   PD        0.334308    0.668734    0.387636     0.005394
PD1752   PD        0.370108    0.636038    0.385905     0.005394
AU1753   AU        0.370103    0.669504    0.419412     0.007504
AU1754   AU        0.403061    0.636803    0.419396     0.007504
AU1755   AU        0.403627    0.668220    0.384308     0.007504
PD1756   PD        0.434814    0.634685    0.384732     0.005394
AU1757   AU        0.435373    0.667643    0.420898     0.007504
AU1758   AU        0.468547    0.635408    0.418653     0.007504
AU1759   AU        0.468683    0.667972    0.386115     0.007504
AU1760   AU        0.500880    0.635816    0.384673     0.007504
AU1761   AU        0.501474    0.667979    0.419207     0.007504
AU1762   AU        0.532946    0.634972    0.419013     0.007504
PD1763   PD        0.534130    0.670374    0.385513     0.005394
AU1764   AU        0.569126    0.634601    0.386308     0.007504
PD1765   PD        0.565018    0.668736    0.419742     0.005394
PD1766   PD        0.602460    0.635309    0.420460     0.005394
PD1767   PD        0.600209    0.668613    0.387148     0.005394
AU1768   AU        0.632136    0.632783    0.387465     0.007504
AU1769   AU        0.633492    0.670567    0.416851     0.007504
PD1770   PD        0.666002    0.633722    0.416667     0.005394
PD1771   PD        0.666904    0.669886    0.385298     0.005394
AU1772   AU        0.699798    0.635821    0.384563     0.007504
PD1773   PD        0.700167    0.665503    0.419006     0.005394
PD1774   PD        0.731414    0.636304    0.419026     0.005394
PD1775   PD        0.738274    0.700944    0.359569     0.005394
PD1776   PD        0.769587    0.633069    0.388442     0.005394
PD1777   PD        0.794202    0.707678    0.417269     0.005394
PD1778   PD        0.071305    0.708225    0.426300     0.005394
PD1779   PD        0.169072    0.703563    0.385212     0.005394
PD1780   PD        0.168024    0.765714    0.390888     0.005394
PD1781   PD        0.202350    0.697499    0.423191     0.005394
PD1782   PD        0.206613    0.731013    0.390390     0.005394
PD1783   PD        0.238669    0.700962    0.385550     0.005394
PD1784   PD        0.235064    0.731237    0.418362     0.005394
AU1785   AU        0.270474    0.699973    0.420245     0.007504
AU1786   AU        0.269905    0.734243    0.387647     0.007504
PD1787   PD        0.301461    0.703263    0.387391     0.005394
AU1788   AU        0.302589    0.733675    0.421209     0.007504
AU1789   AU        0.337131    0.701797    0.419776     0.007504
PD1790   PD        0.333247    0.736626    0.386250     0.005394
PD1791   PD        0.370413    0.702344    0.386389     0.005394
AU1792   AU        0.368612    0.734687    0.421026     0.007504
AU1793   AU        0.402102    0.701825    0.419242     0.007504
PD1794   PD        0.401432    0.736868    0.388110     0.005394
PD1795   PD        0.434444    0.702075    0.385565     0.005394
AU1796   AU        0.432961    0.733964    0.417961     0.007504
AU1797   AU        0.467207    0.700926    0.418585     0.007504
AU1798   AU        0.469075    0.732947    0.385862     0.007504
AU1799   AU        0.501525    0.700944    0.386290     0.007504
AU1800   AU        0.500894    0.733479    0.419117     0.007504
PD1801   PD        0.535427    0.703038    0.417090     0.005394
AU1802   AU        0.532444    0.735278    0.387083     0.007504
PD1803   PD        0.564709    0.704314    0.384868     0.005394
PD1804   PD        0.565475    0.736182    0.422286     0.005394
AU1805   AU        0.598436    0.701109    0.418840     0.007504
PD1806   PD        0.599805    0.733636    0.381402     0.005394
AU1807   AU        0.634377    0.702279    0.385885     0.007504
PD1808   PD        0.629735    0.731454    0.421177     0.005394
PD1809   PD        0.668125    0.701506    0.419054     0.005394
PD1810   PD        0.663968    0.734511    0.386202     0.005394
AU1811   AU        0.699701    0.703417    0.384706     0.007504
AU1812   AU        0.701877    0.732419    0.421587     0.007504
PD1813   PD        0.731685    0.698593    0.417718     0.005394
PD1814   PD        0.198594    0.765996    0.421856     0.005394
PD1815   PD        0.233566    0.766486    0.385288     0.005394
PD1816   PD        0.266269    0.768031    0.421682     0.005394
PD1817   PD        0.270629    0.799798    0.385881     0.005394
AU1818   AU        0.301358    0.767107    0.389694     0.007504
PD1819   PD        0.297760    0.798387    0.425118     0.005394
AU1820   AU        0.337299    0.766996    0.418735     0.007504
PD1821   PD        0.340048    0.798478    0.385789     0.005394
PD1822   PD        0.365713    0.768661    0.384860     0.005394
PD1823   PD        0.370249    0.800173    0.420526     0.005394
AU1824   AU        0.401130    0.767238    0.420891     0.007504
PD1825   PD        0.400617    0.797896    0.388873     0.005394
PD1826   PD        0.435719    0.764422    0.386459     0.005394
AU1827   AU        0.434662    0.798956    0.420158     0.007504
AU1828   AU        0.468228    0.765593    0.416995     0.007504
AU1829   AU        0.466147    0.799614    0.387911     0.007504
PD1830   PD        0.499867    0.768173    0.385860     0.005394
PD1831   PD        0.500076    0.799414    0.418588     0.005394
PD1832   PD        0.534110    0.767121    0.418972     0.005394
PD1833   PD        0.506172    0.865517    0.355349     0.005394
AU1834   AU        0.567078    0.765801    0.384688     0.007504
PD1835   PD        0.562284    0.801298    0.423166     0.005394
PD1836   PD        0.597765    0.770874    0.419965     0.005394
PD1837   PD        0.598471    0.802479    0.390704     0.005394
AU1838   AU        0.632824    0.768215    0.386744     0.007504
PD1839   PD        0.667769    0.764852    0.423959     0.005394
PD1840   PD        0.401454    0.833261    0.423057     0.005394
AU1841   AU        0.433467    0.832988    0.387970     0.007504
PD1842   PD        0.466337    0.832409    0.419543     0.005394
PD1843   PD        0.267233    0.067866    0.450917     0.005394
PD1844   PD        0.315422    0.000667    0.533300     0.005394
PD1845   PD        0.334415    0.072770    0.448702     0.005394
PD1846   PD        0.345866    0.014440    0.500587     0.005394
PD1847   PD        0.364454    0.070062    0.488925     0.005394
AU1848   AU        0.400331    0.038894    0.486033     0.007504
AU1849   AU        0.401584    0.071171    0.453529     0.007504
PD1850   PD        0.431986    0.039856    0.454921     0.005394
PD1851   PD        0.435115    0.070186    0.484087     0.005394
PD1852   PD        0.467524    0.038957    0.483742     0.005394
PD1853   PD        0.467543    0.072884    0.450757     0.005394
AU1854   AU        0.535029    0.039167    0.490542     0.007504
AU1855   AU        0.499122    0.071706    0.485786     0.007504
AU1856   AU        0.536164    0.070158    0.452922     0.007504
PD1857   PD        0.568403    0.069520    0.484814     0.005394
PD1858   PD        0.604029    0.066622    0.448793     0.005394
AU1859   AU        0.168372    0.136435    0.484989     0.007504
PD1860   PD        0.202205    0.105595    0.483129     0.005394
PD1861   PD        0.202169    0.135996    0.447795     0.005394
PD1862   PD        0.237342    0.104436    0.453770     0.005394
AU1863   AU        0.238155    0.135522    0.487226     0.007504
AU1864   AU        0.271369    0.104603    0.486909     0.007504
PD1865   PD        0.269130    0.137822    0.452976     0.005394
PD1866   PD        0.301732    0.104643    0.452736     0.005394
PD1867   PD        0.303223    0.137469    0.487517     0.005394
AU1868   AU        0.334713    0.104943    0.485324     0.007504
AU1869   AU        0.333548    0.136385    0.452465     0.007504
AU1870   AU        0.367966    0.103741    0.453211     0.007504
AU1871   AU        0.365529    0.136662    0.484797     0.007504
PD1872   PD        0.402273    0.105236    0.486765     0.005394
PD1873   PD        0.400967    0.138876    0.456089     0.005394
PD1874   PD        0.433330    0.105461    0.452047     0.005394
PD1875   PD        0.437944    0.140031    0.484678     0.005394
PD1876   PD        0.465445    0.105343    0.488477     0.005394
PD1877   PD        0.470155    0.138358    0.450322     0.005394
PD1878   PD        0.500602    0.103342    0.452233     0.005394
AU1879   AU        0.501385    0.133368    0.483500     0.007504
AU1880   AU        0.534935    0.102169    0.486046     0.007504
AU1881   AU        0.535605    0.135193    0.452572     0.007504
AU1882   AU        0.568189    0.102104    0.453429     0.007504
AU1883   AU        0.565744    0.138088    0.485942     0.007504
PD1884   PD        0.599786    0.104064    0.489531     0.005394
PD1885   PD        0.602060    0.138991    0.454496     0.005394
PD1886   PD        0.635096    0.105058    0.448416     0.005394
PD1887   PD        0.632745    0.139664    0.484771     0.005394
PD1888   PD        0.667037    0.103935    0.486774     0.005394
PD1889   PD        0.668119    0.135276    0.451884     0.005394
PD1890   PD        0.701538    0.134427    0.481017     0.005394
PD1891   PD        0.104503    0.205782    0.482297     0.005394
PD1892   PD        0.135998    0.167933    0.485046     0.005394
PD1893   PD        0.138120    0.204462    0.451144     0.005394
PD1894   PD        0.169433    0.170469    0.451733     0.005394
PD1895   PD        0.172542    0.201299    0.486644     0.005394
AU1896   AU        0.204668    0.166853    0.485087     0.007504
PD1897   PD        0.200605    0.200106    0.453496     0.005394
PD1898   PD        0.234209    0.170989    0.450818     0.005394
PD1899   PD        0.234431    0.200652    0.485176     0.005394
PD1900   PD        0.266782    0.166837    0.486386     0.005394
AU1901   AU        0.268322    0.201462    0.451268     0.007504
AU1902   AU        0.302140    0.171215    0.453781     0.007504
AU1903   AU        0.299304    0.202482    0.485840     0.007504
AU1904   AU        0.332307    0.168766    0.486774     0.007504
AU1905   AU        0.334745    0.201713    0.454109     0.007504
PD1906   PD        0.366721    0.170418    0.450943     0.005394
AU1907   AU        0.367330    0.201561    0.485544     0.007504
PD1908   PD        0.401338    0.171268    0.491108     0.005394
PD1909   PD        0.402291    0.205373    0.452930     0.005394
PD1910   PD        0.438019    0.168243    0.452697     0.005394
PD1911   PD        0.434882    0.202028    0.487801     0.005394
AU1912   AU        0.467555    0.167452    0.487300     0.007504
AU1913   AU        0.465911    0.203706    0.453749     0.007504
PD1914   PD        0.499782    0.171520    0.453025     0.005394
AU1915   AU        0.499858    0.203149    0.485068     0.007504
AU1916   AU        0.532860    0.168619    0.487319     0.007504
PD1917   PD        0.534820    0.201527    0.451845     0.005394
PD1918   PD        0.568231    0.167237    0.452361     0.005394
PD1919   PD        0.565269    0.202890    0.486407     0.005394
PD1920   PD        0.599203    0.172520    0.485211     0.005394
PD1921   PD        0.599460    0.204266    0.453088     0.005394
PD1922   PD        0.634947    0.169992    0.453288     0.005394
PD1923   PD        0.633411    0.201436    0.487881     0.005394
PD1924   PD        0.667852    0.168137    0.485830     0.005394
AU1925   AU        0.667173    0.201172    0.453573     0.007504
PD1926   PD        0.699387    0.170372    0.451508     0.005394
AU1927   AU        0.700363    0.202815    0.486406     0.007504
PD1928   PD        0.730431    0.167354    0.488041     0.005394
PD1929   PD        0.733221    0.202719    0.453091     0.005394
PD1930   PD        0.768920    0.206508    0.491319     0.005394
PD1931   PD        0.029662    0.278792    0.448080     0.005394
PD1932   PD        0.100870    0.239410    0.453984     0.005394
PD1933   PD        0.103738    0.268844    0.488769     0.005394
AU1934   AU        0.138098    0.235135    0.486411     0.007504
PD1935   PD        0.138315    0.269917    0.456794     0.005394
PD1936   PD        0.169521    0.237412    0.453280     0.005394
PD1937   PD        0.170333    0.266511    0.488689     0.005394
PD1938   PD        0.203193    0.233967    0.486975     0.005394
AU1939   AU        0.202279    0.268327    0.454139     0.007504
PD1940   PD        0.235609    0.232572    0.453493     0.005394
PD1941   PD        0.236654    0.271478    0.487614     0.005394
PD1942   PD        0.269176    0.233418    0.485283     0.005394
PD1943   PD        0.268476    0.268874    0.452696     0.005394
PD1944   PD        0.303303    0.234290    0.453256     0.005394
AU1945   AU        0.302254    0.267121    0.486667     0.007504
AU1946   AU        0.333656    0.235202    0.487519     0.007504
PD1947   PD        0.335236    0.266403    0.452401     0.005394
PD1948   PD        0.365354    0.233829    0.453133     0.005394
PD1949   PD        0.369283    0.266572    0.487963     0.005394
PD1950   PD        0.403600    0.238394    0.490636     0.005394
PD1951   PD        0.398388    0.266270    0.451574     0.005394
PD1952   PD        0.434059    0.234887    0.453390     0.005394
PD1953   PD        0.434519    0.271483    0.487446     0.005394
PD1954   PD        0.468495    0.235898    0.487138     0.005394
PD1955   PD        0.470438    0.268749    0.453049     0.005394
PD1956   PD        0.501396    0.236098    0.450479     0.005394
PD1957   PD        0.500666    0.269790    0.486140     0.005394
PD1958   PD        0.531865    0.233233    0.484585     0.005394
PD1959   PD        0.534543    0.270841    0.452083     0.005394
AU1960   AU        0.567731    0.237283    0.452806     0.007504
AU1961   AU        0.566824    0.269214    0.486496     0.007504
PD1962   PD        0.601344    0.234659    0.487583     0.005394
PD1963   PD        0.600756    0.266849    0.457598     0.005394
PD1964   PD        0.634521    0.236199    0.449365     0.005394
AU1965   AU        0.634785    0.266200    0.488617     0.007504
AU1966   AU        0.666926    0.235900    0.488588     0.007504
PD1967   PD        0.665910    0.267094    0.449933     0.005394
PD1968   PD        0.700990    0.236762    0.451104     0.005394
PD1969   PD        0.699970    0.269108    0.484688     0.005394
PD1970   PD        0.730330    0.234923    0.484155     0.005394
PD1971   PD        0.731143    0.271833    0.450559     0.005394
PD1972   PD        0.765092    0.240076    0.453043     0.005394
PD1973   PD        0.764272    0.270900    0.484881     0.005394
PD1974   PD        0.796471    0.269528    0.450474     0.005394
PD1975   PD        0.065476    0.303480    0.485434     0.005394
AU1976   AU        0.069012    0.337079    0.450003     0.007504
PD1977   PD        0.102511    0.301584    0.456832     0.005394
PD1978   PD        0.101168    0.336834    0.483659     0.005394
AU1979   AU        0.136600    0.301572    0.487893     0.007504
PD1980   PD        0.135704    0.336379    0.452947     0.005394
PD1981   PD        0.169313    0.302936    0.453652     0.005394
AU1982   AU        0.168507    0.333951    0.487188     0.007504
AU1983   AU        0.202050    0.301805    0.486864     0.007504
PD1984   PD        0.203915    0.334357    0.453491     0.005394
PD1985   PD        0.235085    0.303060    0.454505     0.005394
PD1986   PD        0.234723    0.336005    0.487991     0.005394
PD1987   PD        0.269333    0.302219    0.488741     0.005394
AU1988   AU        0.267354    0.335449    0.453191     0.007504
AU1989   AU        0.302461    0.302422    0.454686     0.007504
AU1990   AU        0.301877    0.336450    0.485247     0.007504
AU1991   AU        0.334278    0.299608    0.485999     0.007504
PD1992   PD        0.336870    0.335938    0.453336     0.005394
AU1993   AU        0.366320    0.302260    0.451859     0.007504
AU1994   AU        0.367156    0.336444    0.487457     0.007504
PD1995   PD        0.397657    0.302062    0.485440     0.005394
PD1996   PD        0.402770    0.333374    0.453368     0.005394
PD1997   PD        0.432104    0.302937    0.454103     0.005394
AU1998   AU        0.436136    0.334320    0.486551     0.007504
PD1999   PD        0.466589    0.301919    0.485825     0.005394
AU2000   AU        0.467487    0.334268    0.453001     0.007504
AU2001   AU        0.502063    0.301938    0.448637     0.007504
PD2002   PD        0.501140    0.335614    0.485125     0.005394
AU2003   AU        0.533043    0.303687    0.485577     0.007504
PD2004   PD        0.531429    0.336368    0.452028     0.005394
AU2005   AU        0.569263    0.301264    0.453828     0.007504
PD2006   PD        0.565247    0.336865    0.487344     0.005394
PD2007   PD        0.602556    0.303217    0.486954     0.005394
PD2008   PD        0.600263    0.336815    0.452639     0.005394
AU2009   AU        0.636028    0.300563    0.453748     0.007504
AU2010   AU        0.634205    0.336358    0.487524     0.007504
AU2011   AU        0.667385    0.300865    0.486010     0.007504
PD2012   PD        0.668123    0.336560    0.451927     0.005394
AU2013   AU        0.698328    0.301693    0.451475     0.007504
PD2014   PD        0.699342    0.337724    0.486011     0.005394
PD2015   PD        0.732722    0.302293    0.486073     0.005394
PD2016   PD        0.730438    0.337235    0.453585     0.005394
AU2017   AU        0.763737    0.304289    0.451224     0.007504
PD2018   PD        0.765009    0.334630    0.488207     0.005394
PD2019   PD        0.796740    0.300794    0.483161     0.005394
PD2020   PD        0.801798    0.328908    0.457274     0.005394
PD2021   PD        0.040958    0.370142    0.447802     0.005394
PD2022   PD        0.003080    0.402885    0.451913     0.005394
PD2023   PD        0.071731    0.372032    0.485505     0.005394
PD2024   PD        0.068815    0.403350    0.452556     0.005394
AU2025   AU        0.102421    0.370109    0.451805     0.007504
PD2026   PD        0.100278    0.399054    0.487144     0.005394
PD2027   PD        0.136136    0.368629    0.484649     0.005394
PD2028   PD        0.136353    0.403890    0.455202     0.005394
PD2029   PD        0.165816    0.369357    0.453757     0.005394
PD2030   PD        0.170608    0.402843    0.487697     0.005394
PD2031   PD        0.197865    0.367895    0.481886     0.005394
AU2032   AU        0.201987    0.402850    0.452513     0.007504
PD2033   PD        0.234977    0.369299    0.451149     0.005394
PD2034   PD        0.235289    0.401963    0.485658     0.005394
PD2035   PD        0.269689    0.370262    0.486918     0.005394
PD2036   PD        0.269223    0.401147    0.454759     0.005394
AU2037   AU        0.301661    0.368380    0.453633     0.007504
AU2038   AU        0.300492    0.402541    0.486799     0.007504
AU2039   AU        0.333311    0.368114    0.486321     0.007504
AU2040   AU        0.335064    0.402037    0.456103     0.007504
AU2041   AU        0.367806    0.367175    0.452185     0.007504
AU2042   AU        0.366685    0.401613    0.487836     0.007504
AU2043   AU        0.402591    0.366894    0.487963     0.007504
AU2044   AU        0.400391    0.400502    0.453542     0.007504
AU2045   AU        0.435847    0.368854    0.452238     0.007504
AU2046   AU        0.434423    0.401190    0.487429     0.007504
AU2047   AU        0.468398    0.368940    0.486626     0.007504
AU2048   AU        0.468198    0.404844    0.453004     0.007504
AU2049   AU        0.500913    0.369197    0.450646     0.007504
PD2050   PD        0.499225    0.402546    0.485403     0.005394
PD2051   PD        0.533909    0.368529    0.483152     0.005394
AU2052   AU        0.534524    0.404290    0.453481     0.007504
PD2053   PD        0.567740    0.370777    0.450313     0.005394
AU2054   AU        0.565564    0.402683    0.484415     0.007504
PD2055   PD        0.599209    0.369980    0.487848     0.005394
PD2056   PD        0.598828    0.405209    0.451639     0.005394
PD2057   PD        0.631588    0.369561    0.453656     0.005394
AU2058   AU        0.633598    0.402535    0.486687     0.007504
PD2059   PD        0.668599    0.370134    0.487888     0.005394
AU2060   AU        0.666392    0.401769    0.453263     0.007504
PD2061   PD        0.699173    0.370449    0.452893     0.005394
AU2062   AU        0.700013    0.402521    0.486823     0.007504
PD2063   PD        0.733752    0.370040    0.487085     0.005394
AU2064   AU        0.732861    0.402192    0.452170     0.007504
PD2065   PD        0.766569    0.368063    0.454768     0.005394
AU2066   AU        0.764055    0.402054    0.487323     0.007504
PD2067   PD        0.797436    0.370483    0.487500     0.005394
PD2068   PD        0.793929    0.402401    0.451131     0.005394
AU2069   AU        0.827916    0.369604    0.452783     0.007504
AU2070   AU        0.826553    0.403076    0.484653     0.007504
PD2071   PD        0.037496    0.435452    0.455028     0.005394
AU2072   AU        0.038790    0.468404    0.484455     0.007504
PD2073   PD        0.072792    0.438542    0.487146     0.005394
AU2074   AU        0.070652    0.469589    0.451186     0.007504
PD2075   PD        0.103573    0.435564    0.451154     0.005394
PD2076   PD        0.099039    0.474934    0.486660     0.005394
PD2077   PD        0.132420    0.436432    0.485314     0.005394
PD2078   PD        0.134771    0.472425    0.451870     0.005394
PD2079   PD        0.167189    0.435581    0.455208     0.005394
PD2080   PD        0.168260    0.468374    0.482818     0.005394
PD2081   PD        0.200334    0.436225    0.485485     0.005394
PD2082   PD        0.201664    0.472091    0.452611     0.005394
AU2083   AU        0.235160    0.435862    0.453951     0.007504
AU2084   AU        0.234813    0.469043    0.487169     0.007504
AU2085   AU        0.266078    0.434020    0.488372     0.007504
PD2086   PD        0.268887    0.468903    0.454186     0.005394
AU2087   AU        0.301511    0.438160    0.452319     0.007504
AU2088   AU        0.299824    0.467556    0.487480     0.007504
AU2089   AU        0.333629    0.435191    0.487117     0.007504
AU2090   AU        0.334192    0.469635    0.453655     0.007504
AU2091   AU        0.367979    0.437042    0.452874     0.007504
AU2092   AU        0.366453    0.469311    0.485742     0.007504
AU2093   AU        0.399296    0.434878    0.485713     0.007504
AU2094   AU        0.399840    0.470748    0.453003     0.007504
AU2095   AU        0.433239    0.436311    0.454862     0.007504
AU2096   AU        0.432439    0.468470    0.485327     0.007504
AU2097   AU        0.467992    0.437501    0.485318     0.007504
AU2098   AU        0.467435    0.468783    0.450635     0.007504
AU2099   AU        0.500416    0.436879    0.451925     0.007504
AU2100   AU        0.499682    0.469636    0.485517     0.007504
AU2101   AU        0.534594    0.436001    0.486369     0.007504
AU2102   AU        0.532856    0.470347    0.453369     0.007504
PD2103   PD        0.566642    0.437671    0.452706     0.005394
AU2104   AU        0.568268    0.469691    0.483144     0.007504
AU2105   AU        0.599117    0.434303    0.485946     0.007504
PD2106   PD        0.601460    0.466623    0.450361     0.005394
AU2107   AU        0.633450    0.434443    0.452199     0.007504
PD2108   PD        0.634205    0.467264    0.489042     0.005394
AU2109   AU        0.667163    0.435864    0.484607     0.007504
AU2110   AU        0.668460    0.468365    0.453580     0.007504
PD2111   PD        0.699235    0.435102    0.453172     0.005394
PD2112   PD        0.701881    0.468505    0.484407     0.005394
AU2113   AU        0.731347    0.433848    0.484817     0.007504
AU2114   AU        0.733712    0.468765    0.453676     0.007504
PD2115   PD        0.766817    0.434340    0.453634     0.005394
AU2116   AU        0.763399    0.468307    0.487019     0.007504
AU2117   AU        0.797392    0.436692    0.486008     0.007504
AU2118   AU        0.796455    0.468472    0.450024     0.007504
PD2119   PD        0.828894    0.434592    0.451120     0.005394
PD2120   PD        0.828448    0.470827    0.485992     0.005394
PD2121   PD        0.001273    0.437897    0.487457     0.005394
PD2122   PD        0.070994    0.501008    0.484997     0.005394
AU2123   AU        0.069932    0.535527    0.453361     0.007504
AU2124   AU        0.103062    0.503765    0.451168     0.007504
AU2125   AU        0.102800    0.535704    0.485510     0.007504
PD2126   PD        0.136309    0.502590    0.485481     0.005394
AU2127   AU        0.135225    0.536700    0.453775     0.007504
PD2128   PD        0.165868    0.503882    0.451413     0.005394
PD2129   PD        0.170975    0.533774    0.486860     0.005394
PD2130   PD        0.201093    0.501338    0.488089     0.005394
PD2131   PD        0.203380    0.535549    0.453295     0.005394
PD2132   PD        0.236146    0.504723    0.449764     0.005394
AU2133   AU        0.235292    0.534233    0.486732     0.007504
AU2134   AU        0.269002    0.504055    0.487743     0.007504
AU2135   AU        0.268685    0.534283    0.453753     0.007504
AU2136   AU        0.300347    0.501808    0.455242     0.007504
AU2137   AU        0.300848    0.536543    0.486691     0.007504
AU2138   AU        0.332572    0.501322    0.487152     0.007504
AU2139   AU        0.334425    0.532988    0.454449     0.007504
AU2140   AU        0.366572    0.503699    0.454079     0.007504
AU2141   AU        0.366587    0.535204    0.485991     0.007504
AU2142   AU        0.399192    0.501999    0.488092     0.007504
AU2143   AU        0.399269    0.536636    0.454141     0.007504
AU2144   AU        0.433673    0.502496    0.454250     0.007504
AU2145   AU        0.432970    0.536543    0.486083     0.007504
AU2146   AU        0.466109    0.502075    0.487372     0.007504
AU2147   AU        0.467396    0.536356    0.454228     0.007504
AU2148   AU        0.499546    0.502981    0.453493     0.007504
AU2149   AU        0.501010    0.535456    0.485186     0.007504
PD2150   PD        0.533218    0.503170    0.486785     0.005394
AU2151   AU        0.534804    0.537459    0.451365     0.007504
AU2152   AU        0.569271    0.503070    0.451785     0.007504
PD2153   PD        0.565256    0.534768    0.483344     0.005394
AU2154   AU        0.602208    0.500549    0.484498     0.007504
AU2155   AU        0.600667    0.535140    0.452008     0.007504
AU2156   AU        0.633486    0.500870    0.452476     0.007504
AU2157   AU        0.634197    0.536623    0.484804     0.007504
PD2158   PD        0.665516    0.503957    0.484271     0.005394
AU2159   AU        0.665578    0.534587    0.452788     0.007504
AU2160   AU        0.700139    0.502536    0.450829     0.007504
AU2161   AU        0.699597    0.534707    0.487117     0.007504
PD2162   PD        0.733305    0.501606    0.487569     0.005394
AU2163   AU        0.732149    0.533225    0.451291     0.007504
AU2164   AU        0.765575    0.502884    0.453353     0.007504
PD2165   PD        0.764961    0.536603    0.486914     0.005394
PD2166   PD        0.795642    0.502138    0.480850     0.005394
PD2167   PD        0.798128    0.534152    0.453436     0.005394
PD2168   PD        0.884949    0.492855    0.479202     0.005394
PD2169   PD        0.073867    0.568642    0.486630     0.005394
PD2170   PD        0.067498    0.599044    0.451288     0.005394
AU2171   AU        0.102864    0.568843    0.453246     0.007504
AU2172   AU        0.105028    0.600915    0.489032     0.007504
AU2173   AU        0.138531    0.567271    0.486560     0.007504
PD2174   PD        0.136622    0.600939    0.454629     0.005394
AU2175   AU        0.167981    0.568784    0.450963     0.007504
AU2176   AU        0.171097    0.601001    0.486573     0.007504
AU2177   AU        0.203083    0.568768    0.485740     0.007504
PD2178   PD        0.202994    0.600404    0.452703     0.005394
AU2179   AU        0.235337    0.568289    0.453008     0.007504
AU2180   AU        0.234956    0.601537    0.487115     0.007504
AU2181   AU        0.266836    0.568196    0.485862     0.007504
AU2182   AU        0.267978    0.601709    0.451425     0.007504
AU2183   AU        0.302643    0.568063    0.453495     0.007504
AU2184   AU        0.300304    0.599262    0.486072     0.007504
AU2185   AU        0.335689    0.566388    0.486276     0.007504
AU2186   AU        0.334938    0.603223    0.451249     0.007504
AU2187   AU        0.366201    0.570249    0.450657     0.007504
AU2188   AU        0.366170    0.599768    0.486832     0.007504
AU2189   AU        0.399303    0.569977    0.486200     0.007504
AU2190   AU        0.402817    0.602063    0.453423     0.007504
AU2191   AU        0.433562    0.566988    0.452231     0.007504
PD2192   PD        0.435625    0.600742    0.489074     0.005394
AU2193   AU        0.468235    0.569323    0.484905     0.007504
AU2194   AU        0.465164    0.602475    0.452623     0.007504
AU2195   AU        0.499886    0.570843    0.450373     0.007504
PD2196   PD        0.500595    0.603245    0.489103     0.005394
AU2197   AU        0.531785    0.569783    0.488193     0.007504
AU2198   AU        0.534601    0.602563    0.453875     0.007504
PD2199   PD        0.568679    0.566965    0.452250     0.005394
AU2200   AU        0.568298    0.600897    0.485251     0.007504
AU2201   AU        0.598985    0.568459    0.484951     0.007504
PD2202   PD        0.600323    0.600108    0.451243     0.005394
PD2203   PD        0.633995    0.568591    0.450143     0.005394
PD2204   PD        0.634711    0.598772    0.484029     0.005394
AU2205   AU        0.668797    0.568955    0.484715     0.007504
AU2206   AU        0.667411    0.600342    0.451117     0.007504
AU2207   AU        0.698285    0.568578    0.452769     0.007504
AU2208   AU        0.698710    0.602418    0.484644     0.007504
AU2209   AU        0.730906    0.568214    0.484955     0.007504
PD2210   PD        0.732236    0.600977    0.451830     0.005394
PD2211   PD        0.765406    0.568566    0.452018     0.005394
AU2212   AU        0.763319    0.601104    0.483034     0.007504
PD2213   PD        0.796305    0.567769    0.486930     0.005394
PD2214   PD        0.795736    0.598336    0.452293     0.005394
PD2215   PD        0.100812    0.632346    0.456238     0.005394
PD2216   PD        0.102394    0.668662    0.488625     0.005394
PD2217   PD        0.137479    0.633947    0.487266     0.005394
PD2218   PD        0.129698    0.665525    0.455232     0.005394
AU2219   AU        0.167913    0.634709    0.452490     0.007504
PD2220   PD        0.168136    0.666646    0.486480     0.005394
PD2221   PD        0.201778    0.633976    0.484280     0.005394
PD2222   PD        0.203661    0.665612    0.453240     0.005394
AU2223   AU        0.233261    0.633414    0.453698     0.007504
PD2224   PD        0.235225    0.666234    0.487670     0.005394
PD2225   PD        0.266903    0.632422    0.485190     0.005394
PD2226   PD        0.267714    0.666051    0.454164     0.005394
AU2227   AU        0.302700    0.636450    0.450938     0.007504
PD2228   PD        0.301449    0.667400    0.487248     0.005394
AU2229   AU        0.333844    0.634472    0.485201     0.007504
AU2230   AU        0.336207    0.666488    0.451528     0.007504
PD2231   PD        0.369155    0.633859    0.450790     0.005394
PD2232   PD        0.365901    0.668827    0.485552     0.005394
AU2233   AU        0.400328    0.636546    0.485977     0.007504
PD2234   PD        0.399947    0.668638    0.452537     0.005394
AU2235   AU        0.432516    0.636518    0.452938     0.007504
PD2236   PD        0.432407    0.669059    0.484980     0.005394
AU2237   AU        0.465066    0.634360    0.487789     0.007504
PD2238   PD        0.467190    0.666719    0.451765     0.005394
AU2239   AU        0.499140    0.633241    0.454544     0.007504
AU2240   AU        0.498063    0.668765    0.488016     0.007504
AU2241   AU        0.533963    0.634580    0.486247     0.007504
AU2242   AU        0.531334    0.668122    0.452980     0.007504
AU2243   AU        0.568912    0.634907    0.453694     0.007504
PD2244   PD        0.565650    0.665771    0.486588     0.005394
AU2245   AU        0.600324    0.633778    0.485233     0.007504
AU2246   AU        0.600473    0.667534    0.454176     0.007504
PD2247   PD        0.633111    0.633736    0.450841     0.005394
PD2248   PD        0.635318    0.665065    0.484790     0.005394
PD2249   PD        0.667631    0.634239    0.486412     0.005394
PD2250   PD        0.664698    0.669585    0.452001     0.005394
PD2251   PD        0.697697    0.636617    0.451428     0.005394
AU2252   AU        0.697731    0.666498    0.487404     0.007504
PD2253   PD        0.734371    0.636432    0.484549     0.005394
PD2254   PD        0.735360    0.672329    0.454233     0.005394
PD2255   PD        0.763767    0.633778    0.452277     0.005394
PD2256   PD        0.771009    0.664106    0.484201     0.005394
PD2257   PD        0.112431    0.736357    0.475569     0.005394
PD2258   PD        0.169314    0.698749    0.451931     0.005394
PD2259   PD        0.164257    0.769412    0.454930     0.005394
AU2260   AU        0.203232    0.698314    0.485088     0.007504
PD2261   PD        0.199818    0.732898    0.454333     0.005394
PD2262   PD        0.234709    0.701336    0.453336     0.005394
PD2263   PD        0.234416    0.732026    0.484812     0.005394
PD2264   PD        0.268100    0.697704    0.485247     0.005394
PD2265   PD        0.270918    0.731631    0.452653     0.005394
PD2266   PD        0.302295    0.698951    0.454277     0.005394
AU2267   AU        0.302153    0.735855    0.484816     0.007504
PD2268   PD        0.335259    0.701714    0.486147     0.005394
PD2269   PD        0.335062    0.733325    0.451591     0.005394
PD2270   PD        0.369504    0.702986    0.453722     0.005394
PD2271   PD        0.368640    0.736789    0.485849     0.005394
PD2272   PD        0.399735    0.700421    0.486831     0.005394
AU2273   AU        0.400816    0.733593    0.455101     0.007504
AU2274   AU        0.433703    0.703171    0.453897     0.007504
PD2275   PD        0.433701    0.736735    0.488080     0.005394
AU2276   AU        0.466165    0.702210    0.486376     0.007504
AU2277   AU        0.468461    0.733758    0.451668     0.007504
AU2278   AU        0.502212    0.702227    0.451663     0.007504
AU2279   AU        0.500080    0.735482    0.487643     0.007504
AU2280   AU        0.534335    0.700463    0.486893     0.007504
PD2281   PD        0.534429    0.731505    0.454499     0.005394
PD2282   PD        0.565830    0.698452    0.453813     0.005394
PD2283   PD        0.568345    0.733681    0.484689     0.005394
AU2284   AU        0.598381    0.700192    0.486419     0.007504
PD2285   PD        0.597832    0.734927    0.451193     0.005394
PD2286   PD        0.631976    0.700376    0.454062     0.005394
PD2287   PD        0.633233    0.731225    0.484655     0.005394
PD2288   PD        0.666365    0.701303    0.487134     0.005394
AU2289   AU        0.665357    0.733980    0.451365     0.007504
PD2290   PD        0.699715    0.699874    0.454629     0.005394
PD2291   PD        0.696693    0.731645    0.483595     0.005394
PD2292   PD        0.733029    0.733075    0.455090     0.005394
PD2293   PD        0.202825    0.765417    0.492025     0.005394
AU2294   AU        0.233378    0.765234    0.453268     0.007504
PD2295   PD        0.268558    0.765111    0.486964     0.005394
PD2296   PD        0.258246    0.826350    0.438755     0.005394
AU2297   AU        0.304826    0.769431    0.451386     0.007504
PD2298   PD        0.300235    0.802568    0.487460     0.005394
PD2299   PD        0.335087    0.767386    0.487241     0.005394
PD2300   PD        0.333984    0.800350    0.450882     0.005394
PD2301   PD        0.365600    0.766665    0.456186     0.005394
AU2302   AU        0.369958    0.798460    0.488148     0.007504
AU2303   AU        0.400739    0.768484    0.487193     0.007504
AU2304   AU        0.402067    0.800498    0.454999     0.007504
PD2305   PD        0.433969    0.766745    0.454373     0.005394
AU2306   AU        0.436084    0.800988    0.488493     0.007504
AU2307   AU        0.468205    0.766419    0.485858     0.007504
AU2308   AU        0.468633    0.798576    0.453330     0.007504
AU2309   AU        0.499490    0.766218    0.451613     0.007504
AU2310   AU        0.500109    0.796640    0.487236     0.007504
PD2311   PD        0.532016    0.764815    0.488202     0.005394
PD2312   PD        0.530253    0.801395    0.454670     0.005394
PD2313   PD        0.566579    0.767752    0.454876     0.005394
PD2314   PD        0.565097    0.798644    0.487652     0.005394
PD2315   PD        0.600524    0.767224    0.484133     0.005394
PD2316   PD        0.592787    0.805669    0.457565     0.005394
PD2317   PD        0.631528    0.765818    0.455850     0.005394
AU2318   AU        0.665516    0.766855    0.486642     0.007504
PD2319   PD        0.369837    0.832571    0.457290     0.005394
PD2320   PD        0.372262    0.869406    0.488603     0.005394
AU2321   AU        0.436531    0.832111    0.454326     0.007504
AU2322   AU        0.469038    0.833160    0.488191     0.007504
PD2323   PD        0.498714    0.832712    0.453325     0.005394
PD2324   PD        0.269477    0.035007    0.553905     0.005394
AU2325   AU        0.302534    0.072059    0.553669     0.007504
PD2326   PD        0.337606    0.075643    0.520055     0.005394
PD2327   PD        0.368319    0.069477    0.550479     0.005394
PD2328   PD        0.401532    0.073485    0.517339     0.005394
PD2329   PD        0.434676    0.039453    0.520414     0.005394
AU2330   AU        0.433508    0.072052    0.552909     0.007504
AU2331   AU        0.466404    0.072665    0.520744     0.007504
PD2332   PD        0.502137    0.074195    0.553577     0.005394
PD2333   PD        0.529872    0.039320    0.555442     0.005394
PD2334   PD        0.566362    0.068368    0.552316     0.005394
PD2335   PD        0.608708    0.025284    0.498639     0.005394
AU2336   AU        0.203067    0.135086    0.517822     0.007504
AU2337   AU        0.237697    0.102498    0.518689     0.007504
AU2338   AU        0.235398    0.134837    0.554208     0.007504
AU2339   AU        0.270228    0.102920    0.552577     0.007504
PD2340   PD        0.269287    0.135959    0.519754     0.005394
AU2341   AU        0.301240    0.103820    0.520785     0.007504
AU2342   AU        0.301224    0.136152    0.552729     0.007504
PD2343   PD        0.337101    0.102339    0.551585     0.005394
AU2344   AU        0.333318    0.136638    0.522023     0.007504
AU2345   AU        0.368776    0.106165    0.519194     0.007504
AU2346   AU        0.368090    0.136042    0.552112     0.007504
AU2347   AU        0.401493    0.104820    0.550874     0.007504
AU2348   AU        0.402251    0.137243    0.518742     0.007504
AU2349   AU        0.434113    0.105039    0.520201     0.007504
AU2350   AU        0.434490    0.137628    0.553140     0.007504
PD2351   PD        0.467959    0.102798    0.553312     0.005394
PD2352   PD        0.469946    0.136312    0.520508     0.005394
AU2353   AU        0.503419    0.103161    0.520268     0.007504
AU2354   AU        0.502177    0.135803    0.554368     0.007504
PD2355   PD        0.537653    0.106024    0.554344     0.005394
PD2356   PD        0.535252    0.135150    0.520659     0.005394
PD2357   PD        0.566290    0.105705    0.516928     0.005394
PD2358   PD        0.566781    0.138797    0.554691     0.005394
PD2359   PD        0.597209    0.104769    0.554507     0.005394
AU2360   AU        0.598932    0.137377    0.521304     0.007504
PD2361   PD        0.629752    0.105272    0.522506     0.005394
PD2362   PD        0.633972    0.136601    0.554644     0.005394
PD2363   PD        0.664526    0.138711    0.520467     0.005394
AU2364   AU        0.136890    0.201689    0.518238     0.007504
PD2365   PD        0.170219    0.168526    0.517856     0.005394
PD2366   PD        0.169560    0.200207    0.551542     0.005394
PD2367   PD        0.201218    0.168067    0.556643     0.005394
PD2368   PD        0.200698    0.202051    0.521747     0.005394
AU2369   AU        0.234839    0.168769    0.519309     0.007504
AU2370   AU        0.233695    0.202226    0.552951     0.007504
PD2371   PD        0.266101    0.169023    0.552676     0.005394
PD2372   PD        0.266507    0.202773    0.523245     0.005394
AU2373   AU        0.300032    0.169738    0.522302     0.007504
PD2374   PD        0.301259    0.201733    0.555510     0.005394
AU2375   AU        0.333214    0.168413    0.552846     0.007504
AU2376   AU        0.332836    0.200838    0.520466     0.007504
AU2377   AU        0.366539    0.170193    0.520131     0.007504
PD2378   PD        0.365413    0.201422    0.553744     0.005394
PD2379   PD        0.399994    0.169013    0.552938     0.005394
PD2380   PD        0.400582    0.202900    0.522946     0.005394
AU2381   AU        0.435696    0.169299    0.521670     0.007504
AU2382   AU        0.435233    0.202045    0.555228     0.007504
AU2383   AU        0.469453    0.170244    0.553848     0.007504
AU2384   AU        0.468395    0.202031    0.520205     0.007504
PD2385   PD        0.501565    0.170249    0.520909     0.005394
AU2386   AU        0.501902    0.202900    0.555735     0.007504
AU2387   AU        0.533669    0.170480    0.555344     0.007504
PD2388   PD        0.530983    0.203349    0.520639     0.005394
PD2389   PD        0.566022    0.172236    0.519055     0.005394
PD2390   PD        0.566653    0.206163    0.553930     0.005394
AU2391   AU        0.600991    0.173285    0.553705     0.007504
PD2392   PD        0.598015    0.202633    0.519202     0.005394
AU2393   AU        0.633705    0.170450    0.521017     0.007504
AU2394   AU        0.632937    0.202605    0.554172     0.007504
AU2395   AU        0.667180    0.171000    0.554167     0.007504
AU2396   AU        0.667721    0.201268    0.520332     0.007504
PD2397   PD        0.698792    0.167164    0.519401     0.005394
PD2398   PD        0.698737    0.202278    0.553310     0.005394
AU2399   AU        0.729090    0.202380    0.519585     0.007504
PD2400   PD        0.066863    0.271497    0.519509     0.005394
PD2401   PD        0.103699    0.197246    0.548675     0.005394
PD2402   PD        0.108018    0.269049    0.552062     0.005394
AU2403   AU        0.136336    0.233988    0.554185     0.007504
PD2404   PD        0.136523    0.266247    0.520648     0.005394
PD2405   PD        0.169434    0.233089    0.518173     0.005394
AU2406   AU        0.169316    0.267962    0.554091     0.007504
AU2407   AU        0.201225    0.234877    0.552295     0.007504
PD2408   PD        0.202004    0.268318    0.520062     0.005394
AU2409   AU        0.234568    0.235008    0.518667     0.007504
PD2410   PD        0.235334    0.269986    0.556197     0.005394
AU2411   AU        0.268159    0.234713    0.553430     0.007504
AU2412   AU        0.268577    0.268472    0.520995     0.007504
AU2413   AU        0.301125    0.233544    0.520283     0.007504
AU2414   AU        0.299593    0.267850    0.553892     0.007504
AU2415   AU        0.335172    0.234071    0.555108     0.007504
AU2416   AU        0.336830    0.266825    0.520943     0.007504
AU2417   AU        0.368119    0.234204    0.522077     0.007504
AU2418   AU        0.367944    0.266897    0.555384     0.007504
AU2419   AU        0.402156    0.234738    0.556075     0.007504
PD2420   PD        0.403614    0.266972    0.523059     0.005394
PD2421   PD        0.436174    0.234112    0.521244     0.005394
AU2422   AU        0.435625    0.267545    0.556171     0.007504
AU2423   AU        0.467894    0.234242    0.556070     0.007504
AU2424   AU        0.466441    0.267989    0.522243     0.007504
AU2425   AU        0.499052    0.236012    0.519267     0.007504
AU2426   AU        0.499264    0.268099    0.554093     0.007504
AU2427   AU        0.533530    0.236295    0.553137     0.007504
AU2428   AU        0.533890    0.269256    0.518306     0.007504
PD2429   PD        0.564757    0.235993    0.518847     0.005394
PD2430   PD        0.567093    0.267820    0.550644     0.005394
AU2431   AU        0.600188    0.236070    0.555625     0.007504
AU2432   AU        0.600940    0.268925    0.519940     0.007504
PD2433   PD        0.631990    0.232229    0.519766     0.005394
PD2434   PD        0.633530    0.269709    0.552281     0.005394
AU2435   AU        0.665519    0.236784    0.552491     0.007504
PD2436   PD        0.669959    0.270845    0.517149     0.005394
AU2437   AU        0.700781    0.238379    0.518243     0.007504
AU2438   AU        0.698814    0.268932    0.554547     0.007504
AU2439   AU        0.730186    0.235744    0.552189     0.007504
PD2440   PD        0.731785    0.269087    0.521464     0.005394
PD2441   PD        0.763360    0.233968    0.519481     0.005394
AU2442   AU        0.761859    0.268962    0.553962     0.007504
PD2443   PD        0.795760    0.265320    0.520089     0.005394
PD2444   PD        0.074198    0.299985    0.553589     0.005394
AU2445   AU        0.067986    0.336300    0.516467     0.007504
PD2446   PD        0.105531    0.302061    0.518465     0.005394
AU2447   AU        0.102800    0.333546    0.555365     0.007504
PD2448   PD        0.138486    0.302988    0.554536     0.005394
PD2449   PD        0.135227    0.333755    0.521947     0.005394
PD2450   PD        0.169740    0.301347    0.521031     0.005394
PD2451   PD        0.170298    0.335308    0.554428     0.005394
PD2452   PD        0.201574    0.302147    0.551950     0.005394
AU2453   AU        0.201504    0.338053    0.521394     0.007504
AU2454   AU        0.233895    0.299747    0.522767     0.007504
AU2455   AU        0.233238    0.335667    0.553430     0.007504
PD2456   PD        0.268340    0.303412    0.555607     0.005394
PD2457   PD        0.269521    0.335652    0.519039     0.005394
AU2458   AU        0.301920    0.301343    0.518947     0.007504
PD2459   PD        0.300145    0.334343    0.552790     0.005394
AU2460   AU        0.332676    0.300626    0.554389     0.007504
AU2461   AU        0.334684    0.333890    0.518403     0.007504
PD2462   PD        0.369778    0.298405    0.521912     0.005394
AU2463   AU        0.366998    0.336145    0.554092     0.007504
PD2464   PD        0.401907    0.302082    0.555551     0.005394
AU2465   AU        0.402386    0.335420    0.519455     0.007504
AU2466   AU        0.434554    0.302088    0.521703     0.007504
AU2467   AU        0.437545    0.334464    0.553822     0.007504
AU2468   AU        0.467783    0.300806    0.555250     0.007504
PD2469   PD        0.467419    0.333935    0.520487     0.005394
AU2470   AU        0.499710    0.301621    0.520250     0.007504
AU2471   AU        0.499920    0.334201    0.554672     0.007504
AU2472   AU        0.531619    0.300203    0.554094     0.007504
PD2473   PD        0.533226    0.334798    0.519135     0.005394
PD2474   PD        0.566797    0.303636    0.518851     0.005394
AU2475   AU        0.565470    0.334133    0.553102     0.007504
PD2476   PD        0.604561    0.301164    0.551988     0.005394
PD2477   PD        0.597497    0.335452    0.519663     0.005394
PD2478   PD        0.634249    0.301029    0.518704     0.005394
AU2479   AU        0.633786    0.333754    0.553888     0.007504
AU2480   AU        0.665638    0.301067    0.551836     0.007504
AU2481   AU        0.666521    0.333914    0.519382     0.007504
PD2482   PD        0.701099    0.302791    0.519859     0.005394
PD2483   PD        0.699371    0.336692    0.552317     0.005394
PD2484   PD        0.729729    0.303222    0.552977     0.005394
PD2485   PD        0.731620    0.335804    0.521459     0.005394
AU2486   AU        0.764483    0.302012    0.522042     0.007504
PD2487   PD        0.764406    0.337238    0.553632     0.005394
PD2488   PD        0.797693    0.301363    0.553559     0.005394
PD2489   PD        0.800377    0.338121    0.518940     0.005394
PD2490   PD        0.000667    0.340066    0.524904     0.005394
AU2491   AU        0.070034    0.398895    0.522863     0.007504
PD2492   PD        0.100731    0.367384    0.520008     0.005394
PD2493   PD        0.104156    0.400101    0.554088     0.005394
PD2494   PD        0.134267    0.367481    0.556285     0.005394
PD2495   PD        0.135317    0.402901    0.519096     0.005394
PD2496   PD        0.168166    0.367898    0.522231     0.005394
PD2497   PD        0.167973    0.402561    0.550904     0.005394
AU2498   AU        0.201417    0.371274    0.553472     0.007504
PD2499   PD        0.198505    0.402190    0.517080     0.005394
AU2500   AU        0.233986    0.369588    0.516908     0.007504
PD2501   PD        0.234202    0.401050    0.551452     0.005394
AU2502   AU        0.268365    0.366345    0.552470     0.007504
PD2503   PD        0.269074    0.400360    0.520464     0.005394
AU2504   AU        0.300227    0.367883    0.519958     0.007504
PD2505   PD        0.302345    0.402522    0.553585     0.005394
AU2506   AU        0.332902    0.369543    0.552249     0.007504
AU2507   AU        0.335432    0.401245    0.520357     0.007504
AU2508   AU        0.367102    0.367723    0.520529     0.007504
AU2509   AU        0.367692    0.401761    0.554798     0.007504
AU2510   AU        0.403392    0.368418    0.552977     0.007504
AU2511   AU        0.400917    0.401421    0.519816     0.007504
AU2512   AU        0.434885    0.368958    0.520052     0.007504
AU2513   AU        0.433345    0.402376    0.553670     0.007504
AU2514   AU        0.468465    0.370108    0.552982     0.007504
AU2515   AU        0.466481    0.403501    0.521059     0.007504
AU2516   AU        0.499687    0.369182    0.520835     0.007504
AU2517   AU        0.500144    0.402763    0.553472     0.007504
AU2518   AU        0.533397    0.369224    0.553229     0.007504
AU2519   AU        0.533465    0.403842    0.518744     0.007504
AU2520   AU        0.564310    0.368451    0.518944     0.007504
AU2521   AU        0.566638    0.403593    0.552097     0.007504
PD2522   PD        0.596888    0.367417    0.554185     0.005394
PD2523   PD        0.597771    0.401773    0.520132     0.005394
PD2524   PD        0.631746    0.368065    0.518930     0.005394
PD2525   PD        0.634662    0.403571    0.553830     0.005394
AU2526   AU        0.664357    0.367919    0.553344     0.007504
PD2527   PD        0.668050    0.403422    0.521559     0.005394
PD2528   PD        0.697477    0.370008    0.521029     0.005394
AU2529   AU        0.699538    0.402361    0.554470     0.007504
AU2530   AU        0.733665    0.370364    0.552587     0.007504
AU2531   AU        0.731785    0.402822    0.519203     0.007504
PD2532   PD        0.764946    0.371905    0.521110     0.005394
AU2533   AU        0.764285    0.402454    0.552983     0.007504
AU2534   AU        0.799196    0.369914    0.553919     0.007504
AU2535   AU        0.796891    0.401999    0.519408     0.007504
PD2536   PD        0.039152    0.432802    0.518080     0.005394
AU2537   AU        0.070989    0.438077    0.552061     0.007504
PD2538   PD        0.001655    0.502466    0.491346     0.005394
AU2539   AU        0.103702    0.436805    0.519510     0.007504
PD2540   PD        0.106275    0.467484    0.553180     0.005394
PD2541   PD        0.135320    0.433794    0.553933     0.005394
PD2542   PD        0.134887    0.470926    0.515982     0.005394
PD2543   PD        0.168850    0.437245    0.520439     0.005394
AU2544   AU        0.170115    0.468881    0.553964     0.007504
AU2545   AU        0.200716    0.433717    0.553225     0.007504
AU2546   AU        0.201571    0.468155    0.519084     0.007504
AU2547   AU        0.234637    0.435459    0.520786     0.007504
AU2548   AU        0.233477    0.468942    0.554395     0.007504
AU2549   AU        0.269586    0.435095    0.551680     0.007504
AU2550   AU        0.268292    0.468920    0.521167     0.007504
AU2551   AU        0.302357    0.435096    0.521702     0.007504
PD2552   PD        0.299406    0.468897    0.552970     0.005394
AU2553   AU        0.334925    0.436943    0.552276     0.007504
AU2554   AU        0.335312    0.469539    0.520831     0.007504
AU2555   AU        0.368836    0.433147    0.521923     0.007504
AU2556   AU        0.368485    0.467750    0.553564     0.007504
AU2557   AU        0.402391    0.436530    0.553777     0.007504
AU2558   AU        0.401905    0.470574    0.519447     0.007504
AU2559   AU        0.433384    0.437823    0.517886     0.007504
AU2560   AU        0.433315    0.470228    0.552451     0.007504
AU2561   AU        0.466107    0.434689    0.554390     0.007504
AU2562   AU        0.467379    0.469992    0.520824     0.007504
AU2563   AU        0.501082    0.436426    0.519534     0.007504
AU2564   AU        0.499098    0.466786    0.553599     0.007504
PD2565   PD        0.533131    0.435321    0.551911     0.005394
AU2566   AU        0.535235    0.467972    0.518374     0.007504
AU2567   AU        0.566628    0.435398    0.519138     0.007504
AU2568   AU        0.567206    0.466478    0.553123     0.007504
AU2569   AU        0.600957    0.435277    0.552936     0.007504
AU2570   AU        0.599618    0.468625    0.517583     0.007504
AU2571   AU        0.633591    0.434616    0.518995     0.007504
AU2572   AU        0.631750    0.469234    0.551451     0.007504
PD2573   PD        0.670048    0.438624    0.555927     0.005394
AU2574   AU        0.666445    0.470479    0.518236     0.007504
PD2575   PD        0.700489    0.435954    0.518134     0.005394
PD2576   PD        0.700159    0.469674    0.552562     0.005394
AU2577   AU        0.732722    0.436332    0.552561     0.007504
PD2578   PD        0.733995    0.469699    0.521004     0.005394
PD2579   PD        0.764227    0.437773    0.520117     0.005394
PD2580   PD        0.764616    0.470527    0.550915     0.005394
AU2581   AU        0.796021    0.434797    0.554387     0.007504
PD2582   PD        0.796813    0.470837    0.518219     0.005394
PD2583   PD        0.920073    0.441466    0.554277     0.005394
PD2584   PD        0.069796    0.501697    0.552007     0.005394
AU2585   AU        0.070205    0.538109    0.519786     0.007504
PD2586   PD        0.101155    0.504192    0.519887     0.005394
AU2587   AU        0.102950    0.535953    0.554558     0.007504
AU2588   AU        0.135451    0.500758    0.551857     0.007504
AU2589   AU        0.134629    0.534875    0.520122     0.007504
AU2590   AU        0.169894    0.502451    0.520291     0.007504
AU2591   AU        0.167558    0.534536    0.552928     0.007504
AU2592   AU        0.202377    0.502933    0.552003     0.007504
PD2593   PD        0.202397    0.536392    0.518330     0.005394
PD2594   PD        0.233746    0.502283    0.520595     0.005394
AU2595   AU        0.234224    0.535703    0.554010     0.007504
AU2596   AU        0.267301    0.501667    0.552056     0.007504
AU2597   AU        0.268212    0.535669    0.519924     0.007504
PD2598   PD        0.301185    0.499672    0.520198     0.005394
AU2599   AU        0.300755    0.533432    0.552978     0.007504
AU2600   AU        0.336891    0.500680    0.553823     0.007504
AU2601   AU        0.333889    0.534489    0.518564     0.007504
AU2602   AU        0.368547    0.503345    0.520704     0.007504
AU2603   AU        0.364184    0.536390    0.554472     0.007504
AU2604   AU        0.400400    0.501884    0.553362     0.007504
AU2605   AU        0.400327    0.536781    0.520401     0.007504
AU2606   AU        0.433340    0.503947    0.518803     0.007504
AU2607   AU        0.433880    0.537129    0.554090     0.007504
PD2608   PD        0.466770    0.502733    0.553543     0.005394
AU2609   AU        0.466878    0.533847    0.519822     0.007504
AU2610   AU        0.500099    0.502513    0.519205     0.007504
AU2611   AU        0.499097    0.534662    0.551870     0.007504
AU2612   AU        0.533575    0.500564    0.551910     0.007504
PD2613   PD        0.534525    0.535932    0.519156     0.005394
PD2614   PD        0.568773    0.501298    0.517742     0.005394
PD2615   PD        0.565808    0.536825    0.553491     0.005394
AU2616   AU        0.598102    0.500993    0.552840     0.007504
PD2617   PD        0.598850    0.535043    0.517367     0.005394
PD2618   PD        0.632583    0.505158    0.517838     0.005394
PD2619   PD        0.631686    0.535447    0.552565     0.005394
AU2620   AU        0.667084    0.500872    0.552341     0.007504
PD2621   PD        0.666215    0.537963    0.517754     0.005394
AU2622   AU        0.697971    0.502005    0.518910     0.007504
PD2623   PD        0.698317    0.535526    0.553498     0.005394
PD2624   PD        0.729795    0.501233    0.551856     0.005394
PD2625   PD        0.730911    0.534802    0.521872     0.005394
AU2626   AU        0.766058    0.502576    0.516808     0.007504
PD2627   PD        0.764516    0.532875    0.552458     0.005394
PD2628   PD        0.796336    0.501366    0.552078     0.005394
AU2629   AU        0.800818    0.531865    0.517148     0.007504
PD2630   PD        0.068294    0.568803    0.555126     0.005394
PD2631   PD        0.067151    0.598839    0.517603     0.005394
AU2632   AU        0.103109    0.568112    0.520110     0.007504
PD2633   PD        0.107153    0.599984    0.552167     0.005394
AU2634   AU        0.138664    0.567863    0.550882     0.007504
AU2635   AU        0.137771    0.601259    0.519624     0.007504
PD2636   PD        0.169739    0.566508    0.518007     0.005394
PD2637   PD        0.168720    0.602649    0.554090     0.005394
AU2638   AU        0.200426    0.568733    0.554990     0.007504
PD2639   PD        0.201140    0.601973    0.520194     0.005394
AU2640   AU        0.233035    0.567611    0.517712     0.007504
PD2641   PD        0.236076    0.600250    0.551769     0.005394
PD2642   PD        0.267655    0.566481    0.552623     0.005394
AU2643   AU        0.264750    0.599077    0.520449     0.007504
AU2644   AU        0.301245    0.568192    0.519167     0.007504
AU2645   AU        0.299644    0.599853    0.554145     0.007504
AU2646   AU        0.332542    0.567632    0.552407     0.007504
AU2647   AU        0.333662    0.601516    0.519824     0.007504
AU2648   AU        0.366219    0.567381    0.519927     0.007504
PD2649   PD        0.365303    0.601566    0.553316     0.005394
AU2650   AU        0.400258    0.569974    0.555898     0.007504
PD2651   PD        0.399859    0.601446    0.520520     0.005394
PD2652   PD        0.433827    0.569363    0.520888     0.005394
AU2653   AU        0.432734    0.602095    0.554152     0.007504
AU2654   AU        0.466007    0.568521    0.554086     0.007504
AU2655   AU        0.467481    0.602189    0.522583     0.007504
PD2656   PD        0.497864    0.567581    0.521323     0.005394
PD2657   PD        0.498317    0.603676    0.552186     0.005394
AU2658   AU        0.536001    0.569271    0.553790     0.007504
PD2659   PD        0.533167    0.603105    0.519740     0.005394
AU2660   AU        0.568006    0.567184    0.517010     0.007504
PD2661   PD        0.566483    0.600900    0.554470     0.005394
PD2662   PD        0.600323    0.569117    0.549973     0.005394
PD2663   PD        0.599806    0.602828    0.519372     0.005394
AU2664   AU        0.634716    0.568123    0.518686     0.007504
PD2665   PD        0.634110    0.599003    0.555010     0.005394
PD2666   PD        0.666804    0.568903    0.553671     0.005394
AU2667   AU        0.666392    0.603201    0.519188     0.007504
AU2668   AU        0.699690    0.568300    0.518512     0.007504
AU2669   AU        0.699663    0.601057    0.550133     0.007504
AU2670   AU        0.730789    0.566380    0.552799     0.007504
PD2671   PD        0.733064    0.601480    0.519394     0.005394
PD2672   PD        0.761969    0.566342    0.521332     0.005394
PD2673   PD        0.763641    0.599471    0.551080     0.005394
PD2674   PD        0.796673    0.564815    0.550967     0.005394
PD2675   PD        0.795119    0.597891    0.519065     0.005394
PD2676   PD        0.102636    0.635341    0.523593     0.005394
PD2677   PD        0.136155    0.634476    0.554592     0.005394
PD2678   PD        0.136544    0.667445    0.519835     0.005394
AU2679   AU        0.168156    0.635123    0.521080     0.007504
PD2680   PD        0.173005    0.669795    0.553457     0.005394
PD2681   PD        0.202553    0.630524    0.555516     0.005394
AU2682   AU        0.203753    0.665890    0.519729     0.007504
AU2683   AU        0.234513    0.634249    0.519009     0.007504
PD2684   PD        0.234762    0.668398    0.553171     0.005394
AU2685   AU        0.266516    0.636022    0.552731     0.007504
PD2686   PD        0.266170    0.666146    0.519277     0.005394
PD2687   PD        0.300245    0.631053    0.518317     0.005394
PD2688   PD        0.303689    0.665536    0.553041     0.005394
PD2689   PD        0.333357    0.632355    0.553821     0.005394
PD2690   PD        0.333827    0.665258    0.519617     0.005394
PD2691   PD        0.368970    0.635869    0.518684     0.005394
PD2692   PD        0.366801    0.667018    0.552938     0.005394
AU2693   AU        0.400222    0.635652    0.555338     0.007504
AU2694   AU        0.400191    0.668449    0.521263     0.007504
AU2695   AU        0.432386    0.635356    0.521302     0.007504
PD2696   PD        0.434396    0.669944    0.554832     0.005394
AU2697   AU        0.464411    0.636883    0.554626     0.007504
AU2698   AU        0.465252    0.668354    0.520670     0.007504
AU2699   AU        0.499167    0.635335    0.519984     0.007504
PD2700   PD        0.500732    0.665251    0.552197     0.005394
PD2701   PD        0.531974    0.637451    0.552035     0.005394
PD2702   PD        0.533642    0.666837    0.517571     0.005394
AU2703   AU        0.567101    0.634886    0.518947     0.007504
PD2704   PD        0.566090    0.667479    0.556216     0.005394
AU2705   AU        0.599699    0.632745    0.555130     0.007504
PD2706   PD        0.601976    0.665726    0.519369     0.005394
PD2707   PD        0.635177    0.634939    0.521737     0.005394
PD2708   PD        0.634733    0.667951    0.552898     0.005394
AU2709   AU        0.668984    0.635177    0.552892     0.007504
PD2710   PD        0.664969    0.667742    0.519682     0.005394
AU2711   AU        0.700409    0.634389    0.518998     0.007504
AU2712   AU        0.700602    0.666378    0.553667     0.007504
AU2713   AU        0.732501    0.634408    0.551740     0.007504
AU2714   AU        0.734354    0.666595    0.520797     0.007504
AU2715   AU        0.766384    0.631627    0.516651     0.007504
AU2716   AU        0.169617    0.699426    0.518717     0.007504
PD2717   PD        0.204318    0.699560    0.550526     0.005394
PD2718   PD        0.205360    0.730202    0.520747     0.005394
PD2719   PD        0.237008    0.699760    0.518062     0.005394
PD2720   PD        0.235633    0.729657    0.555627     0.005394
PD2721   PD        0.269334    0.699431    0.553196     0.005394
AU2722   AU        0.269192    0.730141    0.520100     0.007504
PD2723   PD        0.301663    0.698373    0.519579     0.005394
PD2724   PD        0.301098    0.734152    0.553817     0.005394
PD2725   PD        0.335690    0.699405    0.551900     0.005394
PD2726   PD        0.333209    0.732199    0.521399     0.005394
PD2727   PD        0.366796    0.700133    0.519659     0.005394
PD2728   PD        0.366033    0.733698    0.553833     0.005394
AU2729   AU        0.400221    0.700083    0.554797     0.007504
PD2730   PD        0.400165    0.734549    0.518657     0.005394
AU2731   AU        0.432591    0.702241    0.519945     0.007504
PD2732   PD        0.431008    0.733378    0.553499     0.005394
AU2733   AU        0.467516    0.701149    0.552964     0.007504
AU2734   AU        0.465966    0.735548    0.521912     0.007504
PD2735   PD        0.500645    0.699488    0.518361     0.005394
AU2736   AU        0.501836    0.734599    0.554042     0.007504
PD2737   PD        0.533372    0.701942    0.553913     0.005394
PD2738   PD        0.533473    0.731723    0.517582     0.005394
PD2739   PD        0.566627    0.699741    0.522549     0.005394
PD2740   PD        0.564702    0.732460    0.553719     0.005394
AU2741   AU        0.601187    0.701438    0.552040     0.007504
PD2742   PD        0.600871    0.734418    0.518881     0.005394
PD2743   PD        0.632031    0.699455    0.516274     0.005394
PD2744   PD        0.634080    0.734703    0.553083     0.005394
PD2745   PD        0.665072    0.700553    0.551594     0.005394
PD2746   PD        0.666794    0.734071    0.519713     0.005394
PD2747   PD        0.699350    0.698904    0.519972     0.005394
PD2748   PD        0.238017    0.763688    0.519496     0.005394
PD2749   PD        0.271416    0.762642    0.552317     0.005394
PD2750   PD        0.269012    0.801250    0.519891     0.005394
PD2751   PD        0.304326    0.766828    0.519349     0.005394
PD2752   PD        0.303676    0.796272    0.551319     0.005394
PD2753   PD        0.334235    0.764743    0.553808     0.005394
PD2754   PD        0.335452    0.803759    0.520915     0.005394
PD2755   PD        0.365833    0.766646    0.521454     0.005394
PD2756   PD        0.369227    0.803029    0.552928     0.005394
AU2757   AU        0.399144    0.766021    0.554497     0.007504
AU2758   AU        0.402304    0.799743    0.521061     0.007504
PD2759   PD        0.434184    0.768370    0.520807     0.005394
AU2760   AU        0.436530    0.800575    0.552101     0.007504
PD2761   PD        0.466205    0.765868    0.553790     0.005394
PD2762   PD        0.468403    0.799596    0.520357     0.005394
PD2763   PD        0.499678    0.767892    0.521079     0.005394
PD2764   PD        0.501163    0.800359    0.553584     0.005394
AU2765   AU        0.534486    0.767485    0.553507     0.007504
PD2766   PD        0.532744    0.797908    0.517975     0.005394
PD2767   PD        0.565730    0.766428    0.519514     0.005394
PD2768   PD        0.565450    0.802583    0.553553     0.005394
PD2769   PD        0.597556    0.765923    0.553521     0.005394
PD2770   PD        0.599669    0.801119    0.518765     0.005394
PD2771   PD        0.715004    0.831798    0.508979     0.005394
AU2772   AU        0.435152    0.834561    0.518646     0.007504
PD2773   PD        0.337380    0.071523    0.586961     0.005394
AU2774   AU        0.364598    0.069194    0.619394     0.007504
PD2775   PD        0.403191    0.070490    0.586982     0.005394
PD2776   PD        0.432454    0.071890    0.619309     0.005394
PD2777   PD        0.466687    0.069106    0.585421     0.005394
PD2778   PD        0.500438    0.070819    0.620776     0.005394
AU2779   AU        0.535685    0.072781    0.587063     0.007504
PD2780   PD        0.202567    0.137368    0.588891     0.005394
PD2781   PD        0.235249    0.134436    0.617498     0.005394
PD2782   PD        0.268565    0.102835    0.617020     0.005394
PD2783   PD        0.268676    0.135872    0.585564     0.005394
AU2784   AU        0.302787    0.104071    0.586767     0.007504
AU2785   AU        0.301249    0.135521    0.620067     0.007504
AU2786   AU        0.333995    0.104074    0.621220     0.007504
PD2787   PD        0.337948    0.136730    0.587359     0.005394
PD2788   PD        0.370139    0.103676    0.586844     0.005394
PD2789   PD        0.368412    0.137493    0.620906     0.005394
AU2790   AU        0.400237    0.102301    0.618608     0.007504
AU2791   AU        0.400022    0.136669    0.585664     0.007504
PD2792   PD        0.433807    0.105799    0.585850     0.005394
AU2793   AU        0.435866    0.136401    0.620983     0.007504
AU2794   AU        0.469113    0.102455    0.620971     0.007504
PD2795   PD        0.466567    0.136375    0.588690     0.005394
PD2796   PD        0.502617    0.104515    0.585446     0.005394
AU2797   AU        0.501262    0.135413    0.621397     0.007504
AU2798   AU        0.535380    0.101644    0.620881     0.007504
AU2799   AU        0.532208    0.137639    0.587793     0.007504
PD2800   PD        0.565684    0.108039    0.585591     0.005394
AU2801   AU        0.567137    0.138227    0.618202     0.007504
PD2802   PD        0.598326    0.104709    0.618944     0.005394
AU2803   AU        0.600567    0.139800    0.586550     0.007504
AU2804   AU        0.634624    0.140491    0.619257     0.007504
PD2805   PD        0.665763    0.141564    0.586874     0.005394
PD2806   PD        0.136594    0.201540    0.586250     0.005394
PD2807   PD        0.167115    0.169292    0.587880     0.005394
PD2808   PD        0.167445    0.201531    0.622127     0.005394
PD2809   PD        0.203228    0.169598    0.620354     0.005394
AU2810   AU        0.201989    0.200293    0.587613     0.007504
AU2811   AU        0.236627    0.168750    0.586057     0.007504
PD2812   PD        0.235218    0.201318    0.617179     0.005394
AU2813   AU        0.269515    0.169047    0.618495     0.007504
AU2814   AU        0.268946    0.202661    0.586181     0.007504
AU2815   AU        0.302040    0.167278    0.587189     0.007504
AU2816   AU        0.300569    0.201980    0.620538     0.007504
PD2817   PD        0.335066    0.167686    0.619789     0.005394
PD2818   PD        0.332312    0.200153    0.587611     0.005394
PD2819   PD        0.366419    0.169774    0.587136     0.005394
AU2820   AU        0.367072    0.200284    0.620972     0.007504
AU2821   AU        0.400998    0.169095    0.618790     0.007504
AU2822   AU        0.400201    0.201316    0.586656     0.007504
AU2823   AU        0.436448    0.166871    0.587727     0.007504
AU2824   AU        0.433986    0.200251    0.619539     0.007504
PD2825   PD        0.469119    0.168881    0.621252     0.005394
AU2826   AU        0.467991    0.201198    0.588341     0.007504
AU2827   AU        0.499833    0.168380    0.587488     0.007504
PD2828   PD        0.500114    0.204555    0.619835     0.005394
PD2829   PD        0.533697    0.171499    0.617766     0.005394
AU2830   AU        0.535420    0.204948    0.586979     0.007504
AU2831   AU        0.568387    0.171751    0.588215     0.007504
AU2832   AU        0.568438    0.203038    0.621398     0.007504
AU2833   AU        0.599324    0.170578    0.621224     0.007504
AU2834   AU        0.600292    0.202677    0.587116     0.007504
AU2835   AU        0.632426    0.171429    0.588536     0.007504
AU2836   AU        0.633355    0.204057    0.619791     0.007504
PD2837   PD        0.698030    0.131927    0.619827     0.005394
AU2838   AU        0.667000    0.202725    0.587110     0.007504
PD2839   PD        0.704292    0.170770    0.584222     0.005394
AU2840   AU        0.699108    0.205995    0.619913     0.007504
PD2841   PD        0.795500    0.183173    0.569041     0.005394
AU2842   AU        0.104882    0.267966    0.619947     0.007504
PD2843   PD        0.136583    0.236113    0.618834     0.005394
AU2844   AU        0.137535    0.269271    0.587485     0.007504
AU2845   AU        0.170012    0.236413    0.586708     0.007504
AU2846   AU        0.169036    0.268266    0.621298     0.007504
AU2847   AU        0.199937    0.235242    0.622157     0.007504
PD2848   PD        0.201833    0.269042    0.586835     0.005394
PD2849   PD        0.234096    0.233489    0.585879     0.005394
PD2850   PD        0.233862    0.268541    0.620437     0.005394
PD2851   PD        0.268302    0.236925    0.620210     0.005394
AU2852   AU        0.267175    0.269361    0.588284     0.007504
AU2853   AU        0.301028    0.236079    0.585159     0.007504
PD2854   PD        0.300162    0.269580    0.619135     0.005394
AU2855   AU        0.334834    0.233873    0.618428     0.007504
PD2856   PD        0.336783    0.267842    0.585983     0.005394
AU2857   AU        0.368009    0.232317    0.586669     0.007504
AU2858   AU        0.366624    0.266855    0.619009     0.007504
AU2859   AU        0.401123    0.233514    0.619739     0.007504
PD2860   PD        0.401812    0.267096    0.586552     0.005394
PD2861   PD        0.435618    0.232822    0.587248     0.005394
PD2862   PD        0.434296    0.267150    0.617188     0.005394
AU2863   AU        0.467254    0.235667    0.620219     0.007504
PD2864   PD        0.467436    0.266494    0.588058     0.005394
AU2865   AU        0.501341    0.235567    0.588997     0.007504
AU2866   AU        0.500342    0.268684    0.621720     0.007504
PD2867   PD        0.534630    0.234402    0.620261     0.005394
PD2868   PD        0.534076    0.269511    0.587761     0.005394
PD2869   PD        0.569193    0.239303    0.585019     0.005394
AU2870   AU        0.566690    0.268452    0.619570     0.007504
AU2871   AU        0.599970    0.235314    0.618093     0.007504
AU2872   AU        0.598689    0.269159    0.584642     0.007504
AU2873   AU        0.633936    0.236975    0.586382     0.007504
AU2874   AU        0.632678    0.268583    0.619657     0.007504
AU2875   AU        0.666268    0.237447    0.620088     0.007504
AU2876   AU        0.665077    0.269309    0.584791     0.007504
PD2877   PD        0.698325    0.237880    0.588165     0.005394
PD2878   PD        0.699181    0.269784    0.619069     0.005394
PD2879   PD        0.730642    0.235407    0.619027     0.005394
AU2880   AU        0.731006    0.269478    0.584825     0.007504
PD2881   PD        0.765444    0.269031    0.615851     0.005394
PD2882   PD        0.071742    0.302985    0.624410     0.005394
AU2883   AU        0.105339    0.300980    0.585220     0.007504
AU2884   AU        0.105144    0.334528    0.617885     0.007504
PD2885   PD        0.134954    0.301997    0.621148     0.005394
AU2886   AU        0.138432    0.333294    0.588264     0.007504
PD2887   PD        0.169818    0.301418    0.588480     0.005394
PD2888   PD        0.169832    0.333128    0.622408     0.005394
AU2889   AU        0.201951    0.301986    0.621070     0.007504
PD2890   PD        0.200227    0.335229    0.588098     0.005394
AU2891   AU        0.232244    0.301736    0.588061     0.007504
PD2892   PD        0.233144    0.334471    0.619839     0.005394
PD2893   PD        0.267153    0.303145    0.621037     0.005394
PD2894   PD        0.266719    0.333176    0.585425     0.005394
AU2895   AU        0.300943    0.301501    0.588925     0.007504
AU2896   AU        0.301686    0.334139    0.619742     0.007504
AU2897   AU        0.333772    0.301632    0.620436     0.007504
AU2898   AU        0.334684    0.336282    0.587689     0.007504
PD2899   PD        0.369801    0.302902    0.586597     0.005394
AU2900   AU        0.367546    0.333804    0.617770     0.007504
AU2901   AU        0.400564    0.299310    0.619472     0.007504
PD2902   PD        0.401193    0.335248    0.588147     0.005394
AU2903   AU        0.434255    0.302268    0.586840     0.007504
AU2904   AU        0.435720    0.334839    0.618949     0.007504
AU2905   AU        0.468082    0.300766    0.620990     0.007504
AU2906   AU        0.467848    0.333411    0.586936     0.007504
AU2907   AU        0.500170    0.299947    0.586892     0.007504
PD2908   PD        0.500226    0.333915    0.620799     0.005394
AU2909   AU        0.533080    0.300867    0.620080     0.007504
AU2910   AU        0.534161    0.333928    0.586709     0.007504
PD2911   PD        0.567158    0.304118    0.585688     0.005394
PD2912   PD        0.566706    0.333397    0.619623     0.005394
PD2913   PD        0.599657    0.303040    0.622439     0.005394
PD2914   PD        0.599967    0.333039    0.587496     0.005394
PD2915   PD        0.633247    0.302173    0.586353     0.005394
PD2916   PD        0.633063    0.334611    0.618685     0.005394
PD2917   PD        0.665752    0.302202    0.620017     0.005394
PD2918   PD        0.667545    0.333265    0.586518     0.005394
AU2919   AU        0.697861    0.301619    0.586632     0.007504
PD2920   PD        0.697797    0.334284    0.620208     0.005394
AU2921   AU        0.731956    0.300229    0.617136     0.007504
PD2922   PD        0.732844    0.338123    0.585845     0.005394
PD2923   PD        0.763674    0.303626    0.583894     0.005394
AU2924   AU        0.763711    0.336095    0.617962     0.007504
PD2925   PD        0.797428    0.335950    0.586691     0.005394
AU2926   AU        0.070332    0.368220    0.620811     0.007504
PD2927   PD        0.068788    0.401818    0.587053     0.005394
PD2928   PD        0.104752    0.364579    0.591929     0.005394
PD2929   PD        0.103027    0.402646    0.620582     0.005394
PD2930   PD        0.134342    0.368513    0.620743     0.005394
AU2931   AU        0.136131    0.402978    0.587864     0.007504
PD2932   PD        0.169071    0.368509    0.585849     0.005394
AU2933   AU        0.168818    0.402514    0.619970     0.007504
PD2934   PD        0.200781    0.369371    0.618686     0.005394
AU2935   AU        0.201160    0.403575    0.587378     0.007504
PD2936   PD        0.236583    0.367857    0.588978     0.005394
AU2937   AU        0.236571    0.401322    0.620247     0.007504
AU2938   AU        0.268964    0.367686    0.619219     0.007504
AU2939   AU        0.268432    0.401898    0.584236     0.007504
AU2940   AU        0.301394    0.366322    0.586247     0.007504
AU2941   AU        0.300355    0.401757    0.618315     0.007504
PD2942   PD        0.330314    0.365926    0.620487     0.005394
AU2943   AU        0.333814    0.402244    0.585873     0.007504
PD2944   PD        0.365256    0.368680    0.586008     0.005394
AU2945   AU        0.367539    0.399448    0.619957     0.007504
PD2946   PD        0.398322    0.368625    0.620985     0.005394
AU2947   AU        0.400742    0.401764    0.586943     0.007504
AU2948   AU        0.434099    0.367404    0.586905     0.007504
PD2949   PD        0.435384    0.400247    0.618949     0.005394
AU2950   AU        0.467731    0.367040    0.620318     0.007504
PD2951   PD        0.465420    0.402089    0.587076     0.005394
AU2952   AU        0.500392    0.368839    0.586073     0.007504
AU2953   AU        0.500777    0.399422    0.620173     0.007504
AU2954   AU        0.531826    0.366188    0.619808     0.007504
PD2955   PD        0.534684    0.399473    0.588166     0.005394
AU2956   AU        0.566443    0.366820    0.586900     0.007504
PD2957   PD        0.568451    0.402639    0.621801     0.005394
PD2958   PD        0.599392    0.368992    0.618612     0.005394
PD2959   PD        0.601799    0.402779    0.585420     0.005394
PD2960   PD        0.633628    0.367616    0.585796     0.005394
AU2961   AU        0.632625    0.402101    0.621618     0.007504
PD2962   PD        0.666896    0.367814    0.619432     0.005394
PD2963   PD        0.666184    0.400349    0.587990     0.005394
AU2964   AU        0.698555    0.367239    0.586167     0.007504
AU2965   AU        0.700474    0.404686    0.618296     0.007504
AU2966   AU        0.730118    0.369417    0.619654     0.007504
PD2967   PD        0.731134    0.402906    0.585076     0.005394
AU2968   AU        0.765435    0.371060    0.586109     0.007504
PD2969   PD        0.762386    0.401841    0.617416     0.005394
PD2970   PD        0.795018    0.370050    0.623787     0.005394
PD2971   PD        0.797795    0.403863    0.585914     0.005394
PD2972   PD        0.067400    0.435540    0.617203     0.005394
PD2973   PD        0.069882    0.471146    0.582908     0.005394
AU2974   AU        0.102777    0.434385    0.585839     0.007504
AU2975   AU        0.101634    0.467473    0.620574     0.007504
PD2976   PD        0.136234    0.435355    0.619826     0.005394
PD2977   PD        0.135763    0.469577    0.587760     0.005394
AU2978   AU        0.166986    0.437234    0.585923     0.007504
PD2979   PD        0.171449    0.467012    0.618990     0.005394
AU2980   AU        0.202370    0.435201    0.619756     0.007504
PD2981   PD        0.202441    0.468939    0.587951     0.005394
PD2982   PD        0.236212    0.437450    0.586194     0.005394
AU2983   AU        0.234579    0.465906    0.621862     0.007504
AU2984   AU        0.267808    0.433801    0.619828     0.007504
AU2985   AU        0.267132    0.468767    0.586524     0.007504
AU2986   AU        0.301441    0.436367    0.586876     0.007504
AU2987   AU        0.302775    0.467319    0.621687     0.007504
PD2988   PD        0.333477    0.432772    0.620651     0.005394
AU2989   AU        0.333614    0.469800    0.586712     0.007504
AU2990   AU        0.366506    0.433226    0.585943     0.007504
PD2991   PD        0.368421    0.468198    0.623706     0.005394
AU2992   AU        0.400090    0.434291    0.619090     0.007504
AU2993   AU        0.400679    0.467969    0.586496     0.007504
AU2994   AU        0.434327    0.436523    0.586580     0.007504
AU2995   AU        0.434494    0.467357    0.618884     0.007504
AU2996   AU        0.468061    0.435166    0.619820     0.007504
AU2997   AU        0.468110    0.467613    0.585937     0.007504
AU2998   AU        0.500803    0.432720    0.587055     0.007504
AU2999   AU        0.501561    0.468472    0.619716     0.007504
PD3000   PD        0.535018    0.432716    0.620605     0.005394
PD3001   PD        0.531770    0.466014    0.583630     0.005394
AU3002   AU        0.567335    0.431795    0.586512     0.007504
AU3003   AU        0.564355    0.466932    0.617941     0.007504
AU3004   AU        0.602363    0.434932    0.618833     0.007504
AU3005   AU        0.600509    0.466409    0.585962     0.007504
AU3006   AU        0.632969    0.436140    0.584913     0.007504
AU3007   AU        0.633445    0.467653    0.619817     0.007504
PD3008   PD        0.666520    0.433978    0.617875     0.005394
AU3009   AU        0.666276    0.467113    0.587407     0.007504
PD3010   PD        0.698529    0.435316    0.586512     0.005394
AU3011   AU        0.699399    0.468458    0.620424     0.007504
PD3012   PD        0.732559    0.436502    0.618304     0.005394
AU3013   AU        0.731707    0.469414    0.586264     0.007504
PD3014   PD        0.763372    0.433920    0.586274     0.005394
AU3015   AU        0.766893    0.469695    0.617918     0.007504
PD3016   PD        0.796419    0.435078    0.618146     0.005394
PD3017   PD        0.799801    0.468871    0.586312     0.005394
PD3018   PD        0.068886    0.498419    0.621233     0.005394
PD3019   PD        0.071596    0.531888    0.587934     0.005394
AU3020   AU        0.103886    0.501385    0.586530     0.007504
AU3021   AU        0.103994    0.536099    0.617735     0.007504
PD3022   PD        0.137228    0.499605    0.620743     0.005394
PD3023   PD        0.136899    0.534182    0.586202     0.005394
AU3024   AU        0.169404    0.501610    0.585899     0.007504
PD3025   PD        0.165736    0.533602    0.620715     0.005394
PD3026   PD        0.201796    0.500053    0.622734     0.005394
PD3027   PD        0.200568    0.533664    0.584895     0.005394
PD3028   PD        0.233278    0.499393    0.589207     0.005394
AU3029   AU        0.233708    0.534451    0.620436     0.007504
AU3030   AU        0.266095    0.499778    0.621825     0.007504
AU3031   AU        0.266202    0.534284    0.586288     0.007504
AU3032   AU        0.300099    0.501482    0.588289     0.007504
PD3033   PD        0.301193    0.533398    0.620024     0.005394
AU3034   AU        0.334109    0.501261    0.620320     0.007504
AU3035   AU        0.332227    0.534160    0.587059     0.007504
AU3036   AU        0.367064    0.502900    0.588528     0.007504
PD3037   PD        0.365813    0.535867    0.619646     0.005394
AU3038   AU        0.399444    0.502925    0.621385     0.007504
AU3039   AU        0.399982    0.536129    0.587817     0.007504
PD3040   PD        0.435567    0.503921    0.586089     0.005394
AU3041   AU        0.433344    0.534395    0.621392     0.007504
AU3042   AU        0.466827    0.500731    0.617767     0.007504
AU3043   AU        0.469203    0.536772    0.587356     0.007504
AU3044   AU        0.500247    0.501581    0.586713     0.007504
AU3045   AU        0.500615    0.535532    0.619399     0.007504
PD3046   PD        0.532399    0.501727    0.620563     0.005394
AU3047   AU        0.532557    0.535306    0.587319     0.007504
PD3048   PD        0.565817    0.502652    0.586648     0.005394
PD3049   PD        0.568992    0.535884    0.618302     0.005394
PD3050   PD        0.598258    0.500102    0.618384     0.005394
AU3051   AU        0.599767    0.535707    0.584816     0.007504
AU3052   AU        0.633262    0.500222    0.586355     0.007504
PD3053   PD        0.631588    0.535794    0.618729     0.005394
AU3054   AU        0.664774    0.501091    0.619806     0.007504
AU3055   AU        0.665329    0.535044    0.586558     0.007504
AU3056   AU        0.699583    0.501296    0.586536     0.007504
PD3057   PD        0.697429    0.534010    0.618175     0.005394
PD3058   PD        0.733246    0.501543    0.619414     0.005394
PD3059   PD        0.729345    0.535413    0.585231     0.005394
AU3060   AU        0.763051    0.500828    0.585751     0.007504
PD3061   PD        0.765098    0.536059    0.615771     0.005394
AU3062   AU        0.798455    0.503833    0.620168     0.007504
PD3063   PD        0.799673    0.535653    0.585043     0.005394
PD3064   PD        0.102486    0.569360    0.583070     0.005394
PD3065   PD        0.099327    0.597721    0.618355     0.005394
AU3066   AU        0.136395    0.569830    0.619523     0.007504
AU3067   AU        0.137873    0.599431    0.585467     0.007504
AU3068   AU        0.168421    0.567265    0.587983     0.007504
AU3069   AU        0.169250    0.600912    0.621214     0.007504
AU3070   AU        0.200429    0.565730    0.619673     0.007504
PD3071   PD        0.199055    0.601142    0.586226     0.005394
PD3072   PD        0.234277    0.567986    0.587868     0.005394
PD3073   PD        0.233846    0.598954    0.620700     0.005394
AU3074   AU        0.267021    0.567982    0.621660     0.007504
PD3075   PD        0.268678    0.599804    0.586928     0.005394
AU3076   AU        0.299830    0.566158    0.585984     0.007504
AU3077   AU        0.299786    0.600323    0.619967     0.007504
PD3078   PD        0.334544    0.567506    0.618456     0.005394
PD3079   PD        0.334345    0.601019    0.585518     0.005394
AU3080   AU        0.366569    0.569739    0.587853     0.007504
AU3081   AU        0.368300    0.603966    0.620305     0.007504
AU3082   AU        0.401071    0.569732    0.618726     0.007504
AU3083   AU        0.399741    0.602203    0.586515     0.007504
AU3084   AU        0.434316    0.568454    0.587646     0.007504
AU3085   AU        0.433200    0.603500    0.618436     0.007504
PD3086   PD        0.464766    0.572013    0.619006     0.005394
AU3087   AU        0.464902    0.603909    0.585698     0.007504
AU3088   AU        0.498764    0.570680    0.588134     0.007504
AU3089   AU        0.498013    0.603164    0.620433     0.007504
PD3090   PD        0.533819    0.567080    0.619681     0.005394
AU3091   AU        0.531367    0.602819    0.584294     0.007504
AU3092   AU        0.566576    0.569827    0.587251     0.007504
PD3093   PD        0.564080    0.602584    0.616512     0.005394
AU3094   AU        0.600029    0.567054    0.619515     0.007504
AU3095   AU        0.597714    0.602246    0.588053     0.007504
PD3096   PD        0.633588    0.567513    0.586607     0.005394
PD3097   PD        0.632191    0.601337    0.619816     0.005394
PD3098   PD        0.667118    0.566253    0.617336     0.005394
PD3099   PD        0.663907    0.605475    0.586975     0.005394
PD3100   PD        0.698947    0.571212    0.586972     0.005394
PD3101   PD        0.695813    0.601977    0.616116     0.005394
PD3102   PD        0.729427    0.567349    0.619209     0.005394
AU3103   AU        0.733324    0.602368    0.585862     0.007504
AU3104   AU        0.763317    0.566307    0.583592     0.007504
PD3105   PD        0.762828    0.596612    0.617940     0.005394
PD3106   PD        0.133011    0.634314    0.619105     0.005394
PD3107   PD        0.131420    0.667419    0.588814     0.005394
AU3108   AU        0.167408    0.635271    0.586928     0.007504
PD3109   PD        0.167821    0.667392    0.623226     0.005394
AU3110   AU        0.200720    0.633905    0.621449     0.007504
AU3111   AU        0.201374    0.666120    0.588733     0.007504
AU3112   AU        0.234606    0.632543    0.588373     0.007504
PD3113   PD        0.233130    0.668064    0.619561     0.005394
AU3114   AU        0.268160    0.632429    0.621196     0.007504
AU3115   AU        0.266926    0.666636    0.588415     0.007504
AU3116   AU        0.300365    0.632325    0.587601     0.007504
PD3117   PD        0.299326    0.667041    0.621211     0.005394
PD3118   PD        0.332214    0.635557    0.621590     0.005394
PD3119   PD        0.331846    0.664310    0.588399     0.005394
AU3120   AU        0.366669    0.635898    0.586689     0.007504
PD3121   PD        0.368258    0.668310    0.620088     0.005394
AU3122   AU        0.401668    0.635421    0.619021     0.007504
AU3123   AU        0.400338    0.668865    0.588425     0.007504
AU3124   AU        0.432763    0.636275    0.586535     0.007504
AU3125   AU        0.433862    0.667338    0.620419     0.007504
PD3126   PD        0.467303    0.635165    0.619754     0.005394
AU3127   AU        0.466109    0.669332    0.588151     0.007504
AU3128   AU        0.500123    0.635403    0.585815     0.007504
AU3129   AU        0.499612    0.668080    0.618452     0.007504
PD3130   PD        0.532916    0.633255    0.621846     0.005394
AU3131   AU        0.532108    0.667937    0.586946     0.007504
PD3132   PD        0.565239    0.635083    0.583765     0.005394
PD3133   PD        0.565550    0.668400    0.620805     0.005394
PD3134   PD        0.602678    0.636494    0.619463     0.005394
PD3135   PD        0.600971    0.671300    0.586478     0.005394
PD3136   PD        0.633251    0.637191    0.585348     0.005394
AU3137   AU        0.633977    0.669674    0.619816     0.007504
PD3138   PD        0.666354    0.638485    0.621362     0.005394
PD3139   PD        0.668338    0.667892    0.585872     0.005394
AU3140   AU        0.701354    0.633737    0.585511     0.007504
AU3141   AU        0.701077    0.666532    0.620032     0.007504
AU3142   AU        0.733043    0.633236    0.619614     0.007504
PD3143   PD        0.735685    0.662487    0.587632     0.005394
PD3144   PD        0.168425    0.700301    0.588535     0.005394
AU3145   AU        0.200563    0.698653    0.624186     0.007504
PD3146   PD        0.239049    0.766659    0.582550     0.005394
AU3147   AU        0.234417    0.699265    0.586342     0.007504
PD3148   PD        0.234952    0.732908    0.622724     0.005394
PD3149   PD        0.267082    0.699829    0.620666     0.005394
PD3150   PD        0.268252    0.732442    0.588430     0.005394
PD3151   PD        0.302373    0.701119    0.583292     0.005394
PD3152   PD        0.301120    0.732656    0.620889     0.005394
PD3153   PD        0.334007    0.702472    0.621728     0.005394
AU3154   AU        0.337598    0.733907    0.586923     0.007504
AU3155   AU        0.368693    0.701813    0.586212     0.007504
AU3156   AU        0.367620    0.732635    0.620474     0.007504
AU3157   AU        0.400131    0.699841    0.620971     0.007504
PD3158   PD        0.399135    0.735069    0.586152     0.005394
AU3159   AU        0.433540    0.702087    0.587329     0.007504
AU3160   AU        0.431795    0.733146    0.619256     0.007504
AU3161   AU        0.468042    0.701705    0.620174     0.007504
AU3162   AU        0.467536    0.734946    0.586576     0.007504
PD3163   PD        0.498741    0.700957    0.585925     0.005394
AU3164   AU        0.500640    0.735650    0.618060     0.007504
AU3165   AU        0.533729    0.701876    0.620216     0.007504
AU3166   AU        0.534757    0.736339    0.587197     0.007504
PD3167   PD        0.564379    0.700769    0.589192     0.005394
AU3168   AU        0.565148    0.733922    0.621032     0.007504
PD3169   PD        0.597472    0.702673    0.622375     0.005394
AU3170   AU        0.601952    0.733303    0.586269     0.007504
PD3171   PD        0.634617    0.699762    0.585786     0.005394
PD3172   PD        0.633313    0.738229    0.619368     0.005394
AU3173   AU        0.669819    0.701756    0.618814     0.007504
AU3174   AU        0.666933    0.734938    0.587580     0.007504
AU3175   AU        0.699709    0.699912    0.585739     0.007504
PD3176   PD        0.266814    0.765802    0.619205     0.005394
PD3177   PD        0.301364    0.767521    0.588881     0.005394
AU3178   AU        0.334179    0.767373    0.621272     0.007504
PD3179   PD        0.366367    0.831331    0.589901     0.005394
AU3180   AU        0.368258    0.768241    0.588744     0.007504
PD3181   PD        0.365966    0.799665    0.687840     0.005394
PD3182   PD        0.399659    0.768439    0.619321     0.005394
PD3183   PD        0.403333    0.800712    0.582290     0.005394
PD3184   PD        0.434295    0.767453    0.587044     0.005394
PD3185   PD        0.434798    0.799670    0.619402     0.005394
PD3186   PD        0.466865    0.766895    0.618713     0.005394
PD3187   PD        0.467526    0.799971    0.584155     0.005394
AU3188   AU        0.500769    0.767675    0.584708     0.007504
AU3189   AU        0.500914    0.801176    0.617381     0.007504
AU3190   AU        0.533363    0.769219    0.620412     0.007504
AU3191   AU        0.533699    0.801285    0.586103     0.007504
PD3192   PD        0.569611    0.765996    0.587606     0.005394
AU3193   AU        0.599128    0.764602    0.617304     0.007504
AU3194   AU        0.267012    0.137451    0.651521     0.007504
AU3195   AU        0.302514    0.137063    0.685436     0.007504
PD3196   PD        0.335605    0.137981    0.651946     0.005394
AU3197   AU        0.367745    0.104652    0.652530     0.007504
PD3198   PD        0.369060    0.139650    0.685373     0.005394
PD3199   PD        0.403203    0.104603    0.685080     0.005394
PD3200   PD        0.402789    0.135583    0.652983     0.005394
PD3201   PD        0.445650    0.082595    0.660478     0.005394
AU3202   AU        0.433795    0.137032    0.683370     0.007504
PD3203   PD        0.473221    0.033638    0.688501     0.005394
PD3204   PD        0.467499    0.136031    0.651668     0.005394
AU3205   AU        0.502030    0.102031    0.655482     0.007504
PD3206   PD        0.500445    0.135835    0.685160     0.005394
AU3207   AU        0.536764    0.135641    0.653376     0.007504
PD3208   PD        0.568571    0.138454    0.687602     0.005394
AU3209   AU        0.599135    0.136879    0.651321     0.007504
PD3210   PD        0.204569    0.203716    0.654068     0.005394
PD3211   PD        0.236545    0.171529    0.651313     0.005394
PD3212   PD        0.239181    0.204281    0.683797     0.005394
AU3213   AU        0.269759    0.171212    0.685191     0.007504
AU3214   AU        0.266683    0.203179    0.650412     0.007504
AU3215   AU        0.300457    0.168963    0.652705     0.007504
PD3216   PD        0.302777    0.204186    0.686606     0.005394
AU3217   AU        0.335419    0.169395    0.688063     0.007504
AU3218   AU        0.335604    0.203855    0.653016     0.007504
PD3219   PD        0.367509    0.167983    0.653937     0.005394
PD3220   PD        0.369593    0.203122    0.683642     0.005394
PD3221   PD        0.400926    0.171638    0.686136     0.005394
AU3222   AU        0.402491    0.202088    0.651586     0.007504
PD3223   PD        0.436462    0.169236    0.650989     0.005394
PD3224   PD        0.433303    0.203082    0.683478     0.005394
PD3225   PD        0.465457    0.169177    0.684531     0.005394
AU3226   AU        0.465727    0.202244    0.652771     0.007504
PD3227   PD        0.503442    0.170781    0.650503     0.005394
AU3228   AU        0.503428    0.203502    0.685561     0.007504
PD3229   PD        0.535255    0.169670    0.686000     0.005394
PD3230   PD        0.534677    0.202431    0.653234     0.005394
AU3231   AU        0.566488    0.170090    0.652971     0.007504
AU3232   AU        0.567464    0.203024    0.684499     0.007504
AU3233   AU        0.600009    0.170519    0.684434     0.007504
AU3234   AU        0.601125    0.201766    0.654225     0.007504
AU3235   AU        0.633450    0.169561    0.652482     0.007504
AU3236   AU        0.633309    0.202320    0.685123     0.007504
AU3237   AU        0.666400    0.203741    0.651845     0.007504
PD3238   PD        0.134105    0.270589    0.653784     0.005394
AU3239   AU        0.170005    0.237902    0.654236     0.007504
PD3240   PD        0.170112    0.270285    0.685299     0.005394
AU3241   AU        0.204092    0.235306    0.684590     0.007504
PD3242   PD        0.203555    0.269622    0.653167     0.005394
AU3243   AU        0.237675    0.236439    0.651985     0.007504
AU3244   AU        0.238739    0.270254    0.685751     0.007504
AU3245   AU        0.269294    0.237270    0.684982     0.007504
AU3246   AU        0.269635    0.269474    0.653407     0.007504
PD3247   PD        0.300252    0.237169    0.653053     0.005394
AU3248   AU        0.301950    0.269051    0.685044     0.007504
AU3249   AU        0.335027    0.236433    0.685159     0.007504
PD3250   PD        0.336095    0.268299    0.651862     0.005394
AU3251   AU        0.367431    0.234885    0.651568     0.007504
PD3252   PD        0.366064    0.268037    0.684991     0.005394
AU3253   AU        0.401056    0.236190    0.685892     0.007504
AU3254   AU        0.401443    0.267130    0.652555     0.007504
PD3255   PD        0.433377    0.233338    0.652552     0.005394
PD3256   PD        0.432885    0.270884    0.687654     0.005394
AU3257   AU        0.467725    0.234347    0.687942     0.007504
PD3258   PD        0.464691    0.267146    0.654168     0.005394
AU3259   AU        0.501235    0.235205    0.653994     0.007504
PD3260   PD        0.500817    0.269810    0.686486     0.005394
AU3261   AU        0.535021    0.237277    0.686045     0.007504
AU3262   AU        0.535842    0.269001    0.654577     0.007504
AU3263   AU        0.566271    0.234662    0.653418     0.007504
AU3264   AU        0.568909    0.268998    0.686735     0.007504
AU3265   AU        0.600658    0.235618    0.686211     0.007504
AU3266   AU        0.599986    0.268431    0.652130     0.007504
AU3267   AU        0.633318    0.235295    0.653014     0.007504
AU3268   AU        0.632152    0.268370    0.684961     0.007504
AU3269   AU        0.666075    0.235714    0.686663     0.007504
PD3270   PD        0.665168    0.269289    0.653999     0.005394
PD3271   PD        0.696965    0.237887    0.652408     0.005394
PD3272   PD        0.694016    0.228677    0.722305     0.005394
PD3273   PD        0.735646    0.265178    0.654134     0.005394
AU3274   AU        0.137664    0.302733    0.687461     0.007504
PD3275   PD        0.134738    0.336493    0.655697     0.005394
AU3276   AU        0.169366    0.300689    0.654119     0.007504
AU3277   AU        0.168669    0.335685    0.686196     0.007504
AU3278   AU        0.203119    0.302544    0.686579     0.007504
AU3279   AU        0.202114    0.335620    0.654208     0.007504
AU3280   AU        0.236229    0.301054    0.653909     0.007504
AU3281   AU        0.234851    0.334494    0.687006     0.007504
AU3282   AU        0.268728    0.303590    0.685653     0.007504
AU3283   AU        0.266993    0.334082    0.653035     0.007504
AU3284   AU        0.301175    0.302259    0.652939     0.007504
AU3285   AU        0.301192    0.335642    0.688363     0.007504
AU3286   AU        0.332106    0.301838    0.684883     0.007504
AU3287   AU        0.335647    0.335348    0.652445     0.007504
PD3288   PD        0.368549    0.301065    0.651291     0.005394
PD3289   PD        0.368122    0.335178    0.686680     0.005394
AU3290   AU        0.402491    0.300867    0.686963     0.007504
AU3291   AU        0.401900    0.333749    0.652296     0.007504
PD3292   PD        0.432647    0.303214    0.650702     0.005394
AU3293   AU        0.434820    0.334552    0.684253     0.007504
AU3294   AU        0.468209    0.301733    0.683924     0.007504
AU3295   AU        0.466656    0.336313    0.651746     0.007504
PD3296   PD        0.498771    0.300397    0.654621     0.005394
AU3297   AU        0.502217    0.335597    0.687966     0.007504
PD3298   PD        0.533716    0.299752    0.685582     0.005394
AU3299   AU        0.534005    0.332108    0.653260     0.007504
AU3300   AU        0.567573    0.300897    0.655075     0.007504
PD3301   PD        0.568574    0.335248    0.684842     0.005394
PD3302   PD        0.599796    0.304422    0.686577     0.005394
AU3303   AU        0.602067    0.336312    0.651950     0.007504
PD3304   PD        0.633923    0.302180    0.652838     0.005394
AU3305   AU        0.632675    0.334295    0.684881     0.007504
PD3306   PD        0.666476    0.304313    0.686487     0.005394
AU3307   AU        0.666951    0.335296    0.652754     0.007504
AU3308   AU        0.698858    0.301207    0.653146     0.007504
PD3309   PD        0.698231    0.337000    0.682547     0.005394
PD3310   PD        0.732445    0.303480    0.682809     0.005394
PD3311   PD        0.731508    0.336443    0.650534     0.005394
PD3312   PD        0.102146    0.369484    0.651507     0.005394
PD3313   PD        0.105835    0.400157    0.687882     0.005394
PD3314   PD        0.137471    0.368745    0.685084     0.005394
PD3315   PD        0.134438    0.399990    0.652432     0.005394
AU3316   AU        0.168317    0.367924    0.651667     0.007504
AU3317   AU        0.167213    0.401319    0.685548     0.007504
AU3318   AU        0.201486    0.366587    0.685679     0.007504
AU3319   AU        0.199920    0.401898    0.652882     0.007504
AU3320   AU        0.235099    0.367289    0.653293     0.007504
AU3321   AU        0.235979    0.400596    0.685956     0.007504
AU3322   AU        0.268307    0.368837    0.687338     0.007504
PD3323   PD        0.267020    0.397565    0.653450     0.005394
PD3324   PD        0.302653    0.365923    0.653822     0.005394
AU3325   AU        0.301281    0.402443    0.688291     0.007504
PD3326   PD        0.334210    0.369978    0.687996     0.005394
AU3327   AU        0.335402    0.401067    0.654695     0.007504
AU3328   AU        0.368526    0.366977    0.653236     0.007504
AU3329   AU        0.366274    0.400707    0.687935     0.007504
AU3330   AU        0.400874    0.366837    0.685980     0.007504
PD3331   PD        0.402997    0.399471    0.652969     0.005394
AU3332   AU        0.432881    0.366499    0.652462     0.007504
PD3333   PD        0.433347    0.400008    0.684704     0.005394
AU3334   AU        0.466591    0.367966    0.686597     0.007504
AU3335   AU        0.467748    0.400006    0.653295     0.007504
PD3336   PD        0.500301    0.368142    0.656246     0.005394
AU3337   AU        0.504087    0.402396    0.687150     0.007504
AU3338   AU        0.533950    0.367408    0.686195     0.007504
AU3339   AU        0.535975    0.400991    0.652860     0.007504
AU3340   AU        0.568769    0.367844    0.654186     0.007504
AU3341   AU        0.567101    0.402193    0.687765     0.007504
PD3342   PD        0.598557    0.368366    0.686540     0.005394
AU3343   AU        0.599973    0.402399    0.654406     0.007504
AU3344   AU        0.634425    0.367530    0.650497     0.007504
AU3345   AU        0.633415    0.399155    0.683107     0.007504
AU3346   AU        0.667152    0.368306    0.685131     0.007504
AU3347   AU        0.667025    0.402931    0.650181     0.007504
PD3348   PD        0.697332    0.368483    0.651907     0.005394
PD3349   PD        0.700398    0.401469    0.682666     0.005394
AU3350   AU        0.732492    0.368554    0.687829     0.007504
AU3351   AU        0.733885    0.401022    0.652067     0.007504
PD3352   PD        0.766234    0.367837    0.651332     0.005394
PD3353   PD        0.763809    0.402838    0.686081     0.005394
PD3354   PD        0.103378    0.433596    0.652881     0.005394
AU3355   AU        0.104339    0.468611    0.686466     0.007504
PD3356   PD        0.134969    0.433808    0.685850     0.005394
PD3357   PD        0.136117    0.466736    0.654549     0.005394
PD3358   PD        0.166661    0.435473    0.655586     0.005394
PD3359   PD        0.166293    0.468179    0.687618     0.005394
AU3360   AU        0.201039    0.434664    0.686870     0.007504
PD3361   PD        0.200973    0.469070    0.654472     0.005394
AU3362   AU        0.236747    0.433159    0.652302     0.007504
AU3363   AU        0.236137    0.467379    0.686053     0.007504
AU3364   AU        0.267023    0.434833    0.685635     0.007504
AU3365   AU        0.267742    0.467831    0.652012     0.007504
PD3366   PD        0.302114    0.435847    0.654640     0.005394
PD3367   PD        0.300181    0.468473    0.684192     0.005394
AU3368   AU        0.334279    0.432926    0.687438     0.007504
AU3369   AU        0.334706    0.466795    0.653821     0.007504
AU3370   AU        0.367523    0.432414    0.653069     0.007504
AU3371   AU        0.365992    0.467700    0.687561     0.007504
PD3372   PD        0.400876    0.432326    0.686424     0.005394
PD3373   PD        0.400129    0.469612    0.653588     0.005394
AU3374   AU        0.435718    0.433070    0.650590     0.007504
PD3375   PD        0.436151    0.466788    0.683339     0.005394
AU3376   AU        0.466652    0.434661    0.683345     0.007504
PD3377   PD        0.466084    0.469230    0.651881     0.005394
AU3378   AU        0.500828    0.434420    0.652630     0.007504
AU3379   AU        0.497898    0.468635    0.686843     0.007504
PD3380   PD        0.531544    0.433323    0.685801     0.005394
AU3381   AU        0.532578    0.468676    0.653781     0.007504
AU3382   AU        0.565960    0.436247    0.655319     0.007504
PD3383   PD        0.566276    0.469185    0.686821     0.005394
AU3384   AU        0.599880    0.434437    0.685714     0.007504
PD3385   PD        0.600103    0.468806    0.651918     0.005394
AU3386   AU        0.632616    0.435475    0.653530     0.007504
PD3387   PD        0.631980    0.468725    0.685976     0.005394
AU3388   AU        0.665984    0.433682    0.683003     0.007504
AU3389   AU        0.666055    0.465272    0.652565     0.007504
PD3390   PD        0.701184    0.434106    0.651858     0.005394
AU3391   AU        0.699294    0.466812    0.683297     0.007504
PD3392   PD        0.731414    0.432075    0.683582     0.005394
AU3393   AU        0.732234    0.469508    0.651032     0.007504
PD3394   PD        0.766743    0.434030    0.653090     0.005394
PD3395   PD        0.760097    0.456560    0.698967     0.005394
PD3396   PD        0.101855    0.499342    0.651443     0.005394
AU3397   AU        0.136349    0.501464    0.687186     0.007504
AU3398   AU        0.134312    0.535385    0.652839     0.007504
PD3399   PD        0.166969    0.500881    0.656224     0.005394
PD3400   PD        0.169533    0.534478    0.686997     0.005394
PD3401   PD        0.201880    0.501100    0.687904     0.005394
PD3402   PD        0.203419    0.534285    0.654879     0.005394
PD3403   PD        0.235330    0.500767    0.656093     0.005394
AU3404   AU        0.234075    0.535320    0.687746     0.007504
AU3405   AU        0.266900    0.503446    0.687275     0.007504
PD3406   PD        0.266482    0.534878    0.654692     0.005394
AU3407   AU        0.299970    0.501844    0.652303     0.007504
AU3408   AU        0.301378    0.535061    0.687488     0.007504
PD3409   PD        0.332633    0.497432    0.686910     0.005394
PD3410   PD        0.334733    0.535873    0.651407     0.005394
PD3411   PD        0.365598    0.503108    0.651582     0.005394
PD3412   PD        0.364200    0.536985    0.687285     0.005394
PD3413   PD        0.398410    0.500656    0.689175     0.005394
AU3414   AU        0.399208    0.536096    0.652852     0.007504
AU3415   AU        0.433626    0.503706    0.655008     0.007504
AU3416   AU        0.432412    0.535839    0.688323     0.007504
PD3417   PD        0.465410    0.502217    0.685049     0.005394
AU3418   AU        0.466809    0.535456    0.652352     0.007504
PD3419   PD        0.499559    0.503423    0.655486     0.005394
PD3420   PD        0.499029    0.534729    0.689917     0.005394
AU3421   AU        0.534261    0.501486    0.685527     0.007504
PD3422   PD        0.533880    0.534666    0.650059     0.005394
PD3423   PD        0.567351    0.499452    0.653235     0.005394
AU3424   AU        0.568048    0.534518    0.684835     0.007504
PD3425   PD        0.598576    0.500078    0.684152     0.005394
AU3426   AU        0.600441    0.534572    0.651870     0.007504
AU3427   AU        0.633071    0.499564    0.653642     0.007504
PD3428   PD        0.634744    0.536375    0.685594     0.005394
PD3429   PD        0.666267    0.502473    0.685515     0.005394
PD3430   PD        0.666485    0.534025    0.651213     0.005394
AU3431   AU        0.698323    0.501176    0.653017     0.007504
PD3432   PD        0.697039    0.534280    0.683138     0.005394
PD3433   PD        0.730735    0.501052    0.685398     0.005394
PD3434   PD        0.731951    0.531605    0.651065     0.005394
PD3435   PD        0.766114    0.498989    0.653583     0.005394
AU3436   AU        0.136269    0.564628    0.688335     0.007504
AU3437   AU        0.134864    0.598659    0.653573     0.007504
PD3438   PD        0.168743    0.566409    0.652182     0.005394
PD3439   PD        0.124785    0.658688    0.722392     0.005394
PD3440   PD        0.202270    0.570686    0.687710     0.005394
AU3441   AU        0.203312    0.599700    0.652981     0.007504
PD3442   PD        0.236855    0.567340    0.653256     0.005394
AU3443   AU        0.234475    0.602126    0.688138     0.007504
PD3444   PD        0.268404    0.569774    0.688736     0.005394
AU3445   AU        0.265359    0.601455    0.655184     0.007504
PD3446   PD        0.300804    0.566547    0.651243     0.005394
AU3447   AU        0.299968    0.601441    0.685840     0.007504
AU3448   AU        0.332819    0.569247    0.688063     0.007504
AU3449   AU        0.333486    0.601453    0.653660     0.007504
PD3450   PD        0.366763    0.569461    0.654080     0.005394
PD3451   PD        0.367965    0.601994    0.685824     0.005394
PD3452   PD        0.400099    0.569779    0.686121     0.005394
AU3453   AU        0.401199    0.600435    0.652245     0.007504
PD3454   PD        0.431621    0.568016    0.653010     0.005394
PD3455   PD        0.434086    0.603378    0.688220     0.005394
PD3456   PD        0.464127    0.568874    0.682931     0.005394
PD3457   PD        0.464808    0.600734    0.652183     0.005394
PD3458   PD        0.501554    0.568402    0.654282     0.005394
AU3459   AU        0.497862    0.602499    0.687230     0.007504
PD3460   PD        0.530931    0.570600    0.687013     0.005394
PD3461   PD        0.529949    0.600325    0.651850     0.005394
AU3462   AU        0.566066    0.566973    0.653048     0.007504
PD3463   PD        0.565473    0.599334    0.684594     0.005394
AU3464   AU        0.599598    0.568513    0.684102     0.007504
PD3465   PD        0.599460    0.599734    0.651438     0.005394
AU3466   AU        0.634188    0.568029    0.653292     0.007504
AU3467   AU        0.633683    0.603049    0.685292     0.007504
PD3468   PD        0.665846    0.569531    0.685953     0.005394
AU3469   AU        0.665025    0.603293    0.651128     0.007504
PD3470   PD        0.700105    0.566396    0.650656     0.005394
PD3471   PD        0.700024    0.606727    0.685799     0.005394
PD3472   PD        0.731194    0.567378    0.687642     0.005394
PD3473   PD        0.732461    0.601404    0.650424     0.005394
PD3474   PD        0.169661    0.632036    0.655054     0.005394
AU3475   AU        0.201911    0.632630    0.686495     0.007504
PD3476   PD        0.200051    0.664129    0.654845     0.005394
AU3477   AU        0.233862    0.634751    0.654521     0.007504
PD3478   PD        0.232480    0.663761    0.685839     0.005394
PD3479   PD        0.267250    0.635539    0.688166     0.005394
AU3480   AU        0.265200    0.666583    0.653170     0.007504
AU3481   AU        0.299191    0.633396    0.654666     0.007504
PD3482   PD        0.300080    0.670494    0.684949     0.005394
PD3483   PD        0.335381    0.635000    0.685826     0.005394
PD3484   PD        0.332263    0.665853    0.653915     0.005394
PD3485   PD        0.366882    0.634807    0.652439     0.005394
PD3486   PD        0.366336    0.666820    0.685155     0.005394
PD3487   PD        0.400931    0.633175    0.685646     0.005394
PD3488   PD        0.398365    0.667893    0.652620     0.005394
AU3489   AU        0.433947    0.634892    0.653939     0.007504
AU3490   AU        0.433695    0.667327    0.685945     0.007504
AU3491   AU        0.465896    0.636053    0.684859     0.007504
PD3492   PD        0.468747    0.668326    0.650386     0.005394
PD3493   PD        0.499348    0.635443    0.651461     0.005394
PD3494   PD        0.497963    0.671104    0.684373     0.005394
AU3495   AU        0.531686    0.633178    0.683637     0.007504
PD3496   PD        0.534346    0.669739    0.653561     0.005394
PD3497   PD        0.565530    0.631799    0.650902     0.005394
AU3498   AU        0.566809    0.666409    0.683278     0.007504
PD3499   PD        0.597466    0.633069    0.685749     0.005394
PD3500   PD        0.600609    0.669330    0.652339     0.005394
PD3501   PD        0.632243    0.634875    0.654635     0.005394
PD3502   PD        0.637451    0.669988    0.686067     0.005394
PD3503   PD        0.666661    0.636203    0.687630     0.005394
PD3504   PD        0.703410    0.699126    0.651568     0.005394
PD3505   PD        0.697315    0.634064    0.651617     0.005394
PD3506   PD        0.199088    0.699845    0.755942     0.005394
PD3507   PD        0.265245    0.699820    0.684826     0.005394
PD3508   PD        0.267788    0.733982    0.652746     0.005394
AU3509   AU        0.301166    0.700328    0.651774     0.007504
AU3510   AU        0.300046    0.735887    0.683965     0.007504
AU3511   AU        0.333682    0.701462    0.684835     0.007504
AU3512   AU        0.334900    0.735323    0.654471     0.007504
AU3513   AU        0.367529    0.700530    0.653423     0.007504
AU3514   AU        0.365314    0.734599    0.688125     0.007504
AU3515   AU        0.398896    0.701800    0.683555     0.007504
PD3516   PD        0.398625    0.735427    0.652907     0.005394
AU3517   AU        0.433507    0.701528    0.652410     0.007504
PD3518   PD        0.432471    0.731594    0.683583     0.005394
AU3519   AU        0.466240    0.700681    0.683753     0.007504
PD3520   PD        0.464597    0.735840    0.649270     0.005394
PD3521   PD        0.500832    0.701979    0.651791     0.005394
AU3522   AU        0.499731    0.732771    0.680706     0.007504
PD3523   PD        0.533252    0.702091    0.684612     0.005394
PD3524   PD        0.533914    0.734334    0.651351     0.005394
PD3525   PD        0.566828    0.698992    0.653966     0.005394
PD3526   PD        0.560519    0.738125    0.684890     0.005394
PD3527   PD        0.600642    0.699018    0.683494     0.005394
PD3528   PD        0.595631    0.735695    0.652208     0.005394
PD3529   PD        0.632235    0.704626    0.652054     0.005394
AU3530   AU        0.368315    0.766957    0.652179     0.007504
PD3531   PD        0.401596    0.767540    0.683719     0.005394
PD3532   PD        0.434351    0.763133    0.652079     0.005394
PD3533   PD        0.465908    0.764029    0.688392     0.005394
AU3534   AU        0.497285    0.767859    0.652129     0.007504
PD3535   PD        0.401384    0.138456    0.719969     0.005394
PD3536   PD        0.466901    0.135314    0.717841     0.005394
PD3537   PD        0.268197    0.205216    0.716795     0.005394
AU3538   AU        0.302599    0.171850    0.718049     0.007504
PD3539   PD        0.301199    0.204083    0.752784     0.005394
AU3540   AU        0.335600    0.203919    0.719460     0.007504
PD3541   PD        0.369378    0.171415    0.717748     0.005394
PD3542   PD        0.368888    0.205230    0.751084     0.005394
PD3543   PD        0.405058    0.171312    0.754321     0.005394
AU3544   AU        0.402059    0.202367    0.720556     0.007504
PD3545   PD        0.434494    0.170066    0.718343     0.005394
PD3546   PD        0.434966    0.203635    0.755068     0.005394
PD3547   PD        0.434534    0.136499    0.748800     0.005394
PD3548   PD        0.466370    0.202329    0.719867     0.005394
PD3549   PD        0.501349    0.170055    0.720677     0.005394
AU3550   AU        0.501982    0.204125    0.749908     0.007504
AU3551   AU        0.536685    0.203972    0.717653     0.007504
AU3552   AU        0.567425    0.171015    0.720157     0.007504
PD3553   PD        0.567860    0.204594    0.753577     0.005394
PD3554   PD        0.603563    0.200455    0.717012     0.005394
PD3555   PD        0.203155    0.270623    0.716840     0.005394
PD3556   PD        0.235929    0.236518    0.718401     0.005394
PD3557   PD        0.236766    0.269014    0.755592     0.005394
AU3558   AU        0.266062    0.235478    0.750710     0.007504
AU3559   AU        0.270391    0.268420    0.720443     0.007504
AU3560   AU        0.301577    0.235925    0.718247     0.007504
AU3561   AU        0.301218    0.268220    0.752867     0.007504
AU3562   AU        0.335042    0.236610    0.751904     0.007504
AU3563   AU        0.332093    0.269324    0.719423     0.007504
PD3564   PD        0.368742    0.236661    0.720500     0.005394
PD3565   PD        0.370075    0.269696    0.750185     0.005394
PD3566   PD        0.403734    0.236708    0.753423     0.005394
AU3567   AU        0.399916    0.269211    0.717394     0.007504
AU3568   AU        0.432696    0.236026    0.718704     0.007504
AU3569   AU        0.433198    0.268289    0.750295     0.007504
PD3570   PD        0.465628    0.234586    0.751115     0.005394
AU3571   AU        0.467591    0.268499    0.719484     0.007504
PD3572   PD        0.498850    0.235630    0.717869     0.005394
AU3573   AU        0.500936    0.269966    0.750840     0.007504
PD3574   PD        0.532930    0.236378    0.750783     0.005394
PD3575   PD        0.533444    0.267618    0.718692     0.005394
AU3576   AU        0.569565    0.234686    0.719165     0.007504
AU3577   AU        0.565063    0.268126    0.749941     0.007504
PD3578   PD        0.602760    0.236222    0.750731     0.005394
AU3579   AU        0.600881    0.270175    0.719199     0.007504
AU3580   AU        0.633528    0.235976    0.717150     0.007504
AU3581   AU        0.634438    0.272059    0.752596     0.007504
PD3582   PD        0.664549    0.268564    0.717681     0.005394
PD3583   PD        0.170395    0.300810    0.718965     0.005394
PD3584   PD        0.206273    0.301405    0.751081     0.005394
AU3585   AU        0.201966    0.334891    0.719628     0.007504
PD3586   PD        0.235855    0.301187    0.719046     0.005394
AU3587   AU        0.233895    0.334681    0.751956     0.007504
PD3588   PD        0.269565    0.300603    0.753133     0.005394
AU3589   AU        0.267720    0.335130    0.719923     0.007504
AU3590   AU        0.300635    0.301745    0.719875     0.007504
AU3591   AU        0.302854    0.334238    0.751945     0.007504
AU3592   AU        0.335938    0.302655    0.751764     0.007504
PD3593   PD        0.333482    0.334766    0.720015     0.005394
AU3594   AU        0.366329    0.302859    0.716371     0.007504
AU3595   AU        0.367993    0.334859    0.750901     0.007504
AU3596   AU        0.400872    0.302251    0.748738     0.007504
AU3597   AU        0.399137    0.333378    0.716731     0.007504
AU3598   AU        0.434911    0.301839    0.717881     0.007504
PD3599   PD        0.435380    0.337532    0.752336     0.005394
PD3600   PD        0.466866    0.302875    0.750827     0.005394
AU3601   AU        0.467620    0.333983    0.717906     0.007504
PD3602   PD        0.499427    0.300405    0.719325     0.005394
PD3603   PD        0.500576    0.334006    0.750602     0.005394
PD3604   PD        0.532321    0.302790    0.752445     0.005394
AU3605   AU        0.535511    0.334387    0.720785     0.007504
PD3606   PD        0.569043    0.302008    0.719866     0.005394
PD3607   PD        0.568689    0.333955    0.752238     0.005394
AU3608   AU        0.599482    0.303735    0.750566     0.007504
PD3609   PD        0.598061    0.338253    0.717064     0.005394
AU3610   AU        0.632088    0.302308    0.718764     0.007504
AU3611   AU        0.631139    0.337323    0.750312     0.007504
AU3612   AU        0.667026    0.303354    0.750091     0.007504
PD3613   PD        0.664292    0.335527    0.719783     0.005394
PD3614   PD        0.700740    0.302417    0.715861     0.005394
PD3615   PD        0.071438    0.388138    0.783826     0.005394
PD3616   PD        0.168600    0.366124    0.719392     0.005394
PD3617   PD        0.169622    0.402193    0.753763     0.005394
PD3618   PD        0.200188    0.365939    0.751483     0.005394
AU3619   AU        0.201634    0.399581    0.719163     0.007504
AU3620   AU        0.236044    0.366646    0.718653     0.007504
PD3621   PD        0.234532    0.402119    0.753212     0.005394
PD3622   PD        0.268229    0.368773    0.753707     0.005394
PD3623   PD        0.269307    0.401438    0.721462     0.005394
PD3624   PD        0.298949    0.367184    0.721399     0.005394
PD3625   PD        0.302337    0.403485    0.753832     0.005394
AU3626   AU        0.335878    0.367500    0.752313     0.007504
AU3627   AU        0.332634    0.400340    0.720047     0.007504
AU3628   AU        0.368286    0.367102    0.718919     0.007504
AU3629   AU        0.368356    0.398860    0.752177     0.007504
PD3630   PD        0.401378    0.367593    0.753102     0.005394
AU3631   AU        0.400572    0.402244    0.719026     0.007504
PD3632   PD        0.433819    0.366093    0.718980     0.005394
AU3633   AU        0.433663    0.400373    0.752709     0.007504
PD3634   PD        0.466796    0.369891    0.749577     0.005394
PD3635   PD        0.467884    0.400479    0.717973     0.005394
PD3636   PD        0.501734    0.368773    0.721264     0.005394
PD3637   PD        0.498964    0.399138    0.752923     0.005394
PD3638   PD        0.534650    0.369735    0.751187     0.005394
PD3639   PD        0.533318    0.403077    0.720489     0.005394
AU3640   AU        0.566253    0.370199    0.718521     0.007504
PD3641   PD        0.568204    0.402390    0.750567     0.005394
AU3642   AU        0.598954    0.371107    0.750783     0.007504
PD3643   PD        0.601687    0.403706    0.720527     0.005394
AU3644   AU        0.631648    0.368367    0.717536     0.007504
PD3645   PD        0.633758    0.398276    0.752289     0.005394
PD3646   PD        0.670191    0.366683    0.749845     0.005394
AU3647   AU        0.665545    0.401404    0.718759     0.007504
PD3648   PD        0.696899    0.368699    0.719813     0.005394
PD3649   PD        0.697883    0.401447    0.752344     0.005394
PD3650   PD        0.731230    0.398492    0.719230     0.005394
AU3651   AU        0.134030    0.469085    0.719360     0.007504
PD3652   PD        0.167383    0.433983    0.719404     0.005394
PD3653   PD        0.163925    0.463742    0.751047     0.005394
AU3654   AU        0.203281    0.435381    0.750895     0.007504
PD3655   PD        0.203407    0.468994    0.722122     0.005394
AU3656   AU        0.235711    0.433908    0.718331     0.007504
AU3657   AU        0.237307    0.467942    0.751917     0.007504
PD3658   PD        0.270050    0.436947    0.749634     0.005394
PD3659   PD        0.269944    0.468646    0.718794     0.005394
PD3660   PD        0.300616    0.435391    0.716574     0.005394
PD3661   PD        0.302215    0.469067    0.751931     0.005394
PD3662   PD        0.334443    0.434193    0.750491     0.005394
AU3663   AU        0.332927    0.468059    0.720297     0.007504
AU3664   AU        0.367892    0.433799    0.720835     0.007504
PD3665   PD        0.367868    0.472202    0.751061     0.005394
AU3666   AU        0.401351    0.433656    0.752196     0.007504
AU3667   AU        0.400121    0.466999    0.719606     0.007504
PD3668   PD        0.436453    0.431949    0.717957     0.005394
PD3669   PD        0.436228    0.468341    0.751889     0.005394
PD3670   PD        0.465014    0.432299    0.751788     0.005394
PD3671   PD        0.466145    0.467099    0.719176     0.005394
AU3672   AU        0.497801    0.435305    0.721986     0.007504
PD3673   PD        0.501339    0.468692    0.752714     0.005394
PD3674   PD        0.533362    0.434558    0.752589     0.005394
AU3675   AU        0.533552    0.469005    0.718630     0.007504
PD3676   PD        0.565921    0.435293    0.720714     0.005394
PD3677   PD        0.564948    0.468700    0.750737     0.005394
AU3678   AU        0.601414    0.436691    0.754102     0.007504
AU3679   AU        0.597801    0.468797    0.718470     0.007504
PD3680   PD        0.631831    0.431980    0.717470     0.005394
PD3681   PD        0.634350    0.470830    0.752389     0.005394
AU3682   AU        0.664184    0.435609    0.752677     0.007504
PD3683   PD        0.666232    0.465618    0.715244     0.005394
AU3684   AU        0.699246    0.432626    0.716854     0.007504
AU3685   AU        0.701101    0.467518    0.746633     0.007504
PD3686   PD        0.807346    0.495309    0.748748     0.005394
AU3687   AU        0.167553    0.500321    0.721417     0.007504
PD3688   PD        0.200843    0.502800    0.753221     0.005394
PD3689   PD        0.200295    0.533299    0.718132     0.005394
AU3690   AU        0.235091    0.500654    0.720737     0.007504
AU3691   AU        0.234194    0.532462    0.751445     0.007504
AU3692   AU        0.268910    0.500179    0.753207     0.007504
PD3693   PD        0.268203    0.533978    0.722261     0.005394
PD3694   PD        0.298615    0.502228    0.719257     0.005394
PD3695   PD        0.302850    0.533717    0.752004     0.005394
AU3696   AU        0.333924    0.503039    0.752468     0.007504
PD3697   PD        0.335338    0.534447    0.717963     0.005394
PD3698   PD        0.368362    0.503471    0.716068     0.005394
AU3699   AU        0.367490    0.536042    0.751730     0.007504
PD3700   PD        0.402367    0.501003    0.749831     0.005394
AU3701   AU        0.400267    0.535839    0.718383     0.007504
PD3702   PD        0.432962    0.501239    0.720688     0.005394
AU3703   AU        0.431717    0.534578    0.752012     0.007504
PD3704   PD        0.465822    0.502366    0.753702     0.005394
AU3705   AU        0.465749    0.536580    0.717156     0.007504
PD3706   PD        0.500616    0.499982    0.718086     0.005394
PD3707   PD        0.500052    0.532787    0.752900     0.005394
PD3708   PD        0.535337    0.502040    0.752137     0.005394
PD3709   PD        0.533058    0.536477    0.715514     0.005394
AU3710   AU        0.567682    0.502965    0.720728     0.007504
PD3711   PD        0.566661    0.534539    0.751143     0.005394
AU3712   AU        0.598370    0.502945    0.752778     0.007504
PD3713   PD        0.600304    0.534706    0.717472     0.005394
PD3714   PD        0.631210    0.499473    0.716737     0.005394
AU3715   AU        0.632598    0.533556    0.750193     0.007504
AU3716   AU        0.666285    0.500321    0.748486     0.007504
PD3717   PD        0.668098    0.536710    0.717938     0.005394
PD3718   PD        0.699055    0.501601    0.716718     0.005394
PD3719   PD        0.170084    0.567721    0.721607     0.005394
PD3720   PD        0.203358    0.565963    0.750707     0.005394
AU3721   AU        0.202596    0.599764    0.721263     0.007504
PD3722   PD        0.235481    0.567384    0.720654     0.005394
AU3723   AU        0.236664    0.597990    0.752948     0.007504
PD3724   PD        0.268635    0.567191    0.753347     0.005394
AU3725   AU        0.266852    0.601770    0.719957     0.007504
PD3726   PD        0.300248    0.565179    0.721153     0.005394
AU3727   AU        0.298681    0.599012    0.752282     0.007504
AU3728   AU        0.334764    0.568633    0.751558     0.007504
AU3729   AU        0.334304    0.601538    0.718359     0.007504
AU3730   AU        0.366415    0.570591    0.717672     0.007504
PD3731   PD        0.365598    0.600902    0.751548     0.005394
AU3732   AU        0.398898    0.569773    0.750817     0.007504
PD3733   PD        0.399472    0.603230    0.721002     0.005394
PD3734   PD        0.431819    0.568866    0.721454     0.005394
PD3735   PD        0.431473    0.604159    0.753831     0.005394
PD3736   PD        0.466139    0.567135    0.753330     0.005394
PD3737   PD        0.464232    0.599036    0.715714     0.005394
AU3738   AU        0.499511    0.568047    0.720422     0.007504
AU3739   AU        0.499443    0.601210    0.751881     0.007504
AU3740   AU        0.534300    0.566144    0.751970     0.007504
PD3741   PD        0.534056    0.601695    0.717504     0.005394
AU3742   AU        0.566836    0.565779    0.717257     0.007504
PD3743   PD        0.565192    0.600094    0.750287     0.005394
PD3744   PD        0.598766    0.568113    0.750418     0.005394
AU3745   AU        0.598483    0.601249    0.717705     0.007504
AU3746   AU        0.632175    0.567608    0.717009     0.007504
PD3747   PD        0.632099    0.598874    0.747629     0.005394
PD3748   PD        0.665142    0.566559    0.748890     0.005394
PD3749   PD        0.698047    0.601911    0.749050     0.005394
PD3750   PD        0.699432    0.572854    0.718266     0.005394
AU3751   AU        0.233098    0.633895    0.720159     0.007504
PD3752   PD        0.266494    0.631040    0.752545     0.005394
PD3753   PD        0.231784    0.732177    0.754981     0.005394
AU3754   AU        0.300042    0.634572    0.719840     0.007504
PD3755   PD        0.301415    0.665436    0.755251     0.005394
PD3756   PD        0.335608    0.632204    0.750492     0.005394
PD3757   PD        0.334659    0.666676    0.718107     0.005394
AU3758   AU        0.366285    0.635983    0.719124     0.007504
PD3759   PD        0.332612    0.728459    0.740055     0.005394
AU3760   AU        0.398366    0.634409    0.752753     0.007504
AU3761   AU        0.400204    0.668420    0.717441     0.007504
PD3762   PD        0.432114    0.635730    0.720410     0.005394
PD3763   PD        0.430109    0.666517    0.750377     0.005394
AU3764   AU        0.467506    0.632537    0.750603     0.007504
PD3765   PD        0.463803    0.667610    0.718263     0.005394
PD3766   PD        0.500102    0.636731    0.717268     0.005394
PD3767   PD        0.503836    0.671739    0.749272     0.005394
PD3768   PD        0.531745    0.633027    0.748845     0.005394
PD3769   PD        0.533681    0.667922    0.716213     0.005394
AU3770   AU        0.565217    0.636197    0.718112     0.007504
PD3771   PD        0.598645    0.650948    0.827727     0.005394
PD3772   PD        0.668081    0.650473    0.783540     0.005394
PD3773   PD        0.595603    0.665676    0.719419     0.005394
AU3774   AU        0.632088    0.636334    0.719759     0.007504
PD3775   PD        0.301022    0.702433    0.719868     0.005394
PD3776   PD        0.367263    0.700604    0.716350     0.005394
PD3777   PD        0.401397    0.703852    0.750934     0.005394
AU3778   AU        0.401624    0.733416    0.718197     0.007504
AU3779   AU        0.433874    0.700183    0.717578     0.007504
PD3780   PD        0.432998    0.735462    0.748551     0.005394
PD3781   PD        0.467638    0.734329    0.715165     0.005394
AU3782   AU        0.497991    0.700719    0.716006     0.007504
PD3783   PD        0.566276    0.702490    0.717798     0.005394
PD3784   PD        0.442444    0.181291    0.800168     0.005394
PD3785   PD        0.466753    0.205867    0.785055     0.005394
PD3786   PD        0.263835    0.233951    0.814029     0.005394
PD3787   PD        0.334901    0.269911    0.784762     0.005394
AU3788   AU        0.368025    0.238975    0.783327     0.007504
PD3789   PD        0.367676    0.269063    0.818780     0.005394
PD3790   PD        0.401102    0.270137    0.783104     0.005394
PD3791   PD        0.437714    0.235022    0.785201     0.005394
PD3792   PD        0.432929    0.268192    0.814912     0.005394
AU3793   AU        0.467152    0.268523    0.782336     0.007504
PD3794   PD        0.499337    0.236081    0.784160     0.005394
PD3795   PD        0.498456    0.270797    0.822408     0.005394
AU3796   AU        0.532916    0.270271    0.786138     0.007504
PD3797   PD        0.674918    0.237969    0.811794     0.005394
PD3798   PD        0.269268    0.329949    0.785099     0.005394
AU3799   AU        0.304183    0.300361    0.786580     0.007504
AU3800   AU        0.301840    0.334330    0.818718     0.007504
AU3801   AU        0.334552    0.302203    0.818070     0.007504
AU3802   AU        0.334349    0.335105    0.784811     0.007504
AU3803   AU        0.368412    0.302092    0.783848     0.007504
AU3804   AU        0.369565    0.334367    0.817009     0.007504
AU3805   AU        0.401825    0.301947    0.817262     0.007504
PD3806   PD        0.402039    0.332226    0.782946     0.005394
AU3807   AU        0.435760    0.302551    0.783216     0.007504
AU3808   AU        0.434315    0.334249    0.816050     0.007504
AU3809   AU        0.466617    0.301239    0.815844     0.007504
AU3810   AU        0.467433    0.335944    0.784930     0.007504
AU3811   AU        0.497909    0.301866    0.784230     0.007504
AU3812   AU        0.499146    0.333319    0.818709     0.007504
AU3813   AU        0.535849    0.300940    0.818881     0.007504
AU3814   AU        0.531235    0.333391    0.786292     0.007504
AU3815   AU        0.566824    0.303557    0.784589     0.007504
AU3816   AU        0.565157    0.335750    0.816864     0.007504
AU3817   AU        0.598847    0.337512    0.784849     0.007504
PD3818   PD        0.210874    0.408178    0.836331     0.005394
PD3819   PD        0.237233    0.367781    0.784214     0.005394
PD3820   PD        0.268589    0.368297    0.817406     0.005394
PD3821   PD        0.269676    0.400950    0.787254     0.005394
AU3822   AU        0.302886    0.368177    0.785601     0.007504
PD3823   PD        0.303345    0.401495    0.818039     0.005394
PD3824   PD        0.332877    0.369557    0.820665     0.005394
PD3825   PD        0.335799    0.401168    0.785521     0.005394
PD3826   PD        0.366891    0.367096    0.786932     0.005394
PD3827   PD        0.367713    0.404699    0.820373     0.005394
PD3828   PD        0.398697    0.369183    0.818316     0.005394
AU3829   AU        0.400107    0.400789    0.783805     0.007504
AU3830   AU        0.432357    0.367113    0.787259     0.007504
PD3831   PD        0.436290    0.401320    0.819027     0.005394
PD3832   PD        0.468286    0.367497    0.815961     0.005394
AU3833   AU        0.467007    0.402766    0.785686     0.007504
PD3834   PD        0.498641    0.367413    0.785732     0.005394
AU3835   AU        0.498501    0.400112    0.818270     0.007504
AU3836   AU        0.531201    0.367489    0.817853     0.007504
AU3837   AU        0.533257    0.401571    0.786003     0.007504
AU3838   AU        0.564432    0.368379    0.785426     0.007504
PD3839   PD        0.568464    0.405461    0.819591     0.005394
PD3840   PD        0.601105    0.368723    0.817175     0.005394
PD3841   PD        0.598042    0.403118    0.786692     0.005394
PD3842   PD        0.633099    0.367823    0.784471     0.005394
PD3843   PD        0.664542    0.401212    0.781401     0.005394
AU3844   AU        0.202246    0.465692    0.784048     0.007504
PD3845   PD        0.235106    0.434540    0.784897     0.005394
PD3846   PD        0.265328    0.434844    0.817130     0.005394
PD3847   PD        0.269303    0.466527    0.785502     0.005394
AU3848   AU        0.301713    0.436997    0.785675     0.007504
AU3849   AU        0.300022    0.468405    0.819655     0.007504
PD3850   PD        0.333648    0.435460    0.815516     0.005394
AU3851   AU        0.335184    0.469168    0.783928     0.007504
PD3852   PD        0.368509    0.434994    0.785433     0.005394
AU3853   AU        0.367332    0.466885    0.816586     0.007504
PD3854   PD        0.403951    0.433803    0.816783     0.005394
AU3855   AU        0.399087    0.468533    0.784502     0.007504
AU3856   AU        0.434880    0.435416    0.785338     0.007504
PD3857   PD        0.436164    0.468694    0.817881     0.005394
AU3858   AU        0.466570    0.433471    0.817741     0.007504
PD3859   PD        0.467163    0.467287    0.783630     0.005394
PD3860   PD        0.500906    0.435569    0.784994     0.005394
PD3861   PD        0.500274    0.467466    0.817998     0.005394
AU3862   AU        0.533195    0.438371    0.817213     0.007504
AU3863   AU        0.532581    0.469452    0.783368     0.007504
PD3864   PD        0.565991    0.433961    0.785464     0.005394
AU3865   AU        0.566318    0.470255    0.816597     0.007504
AU3866   AU        0.600701    0.434997    0.818399     0.007504
AU3867   AU        0.599163    0.468581    0.785807     0.007504
PD3868   PD        0.633928    0.439892    0.784482     0.005394
PD3869   PD        0.698426    0.502179    0.781131     0.005394
AU3870   AU        0.234285    0.500802    0.784431     0.007504
PD3871   PD        0.266950    0.501485    0.816534     0.005394
AU3872   AU        0.266553    0.533325    0.784228     0.007504
AU3873   AU        0.302609    0.500367    0.784692     0.007504
AU3874   AU        0.300654    0.533711    0.817735     0.007504
AU3875   AU        0.333787    0.501904    0.817608     0.007504
AU3876   AU        0.335256    0.533085    0.784319     0.007504
AU3877   AU        0.369288    0.500992    0.785102     0.007504
PD3878   PD        0.366163    0.534810    0.818233     0.005394
PD3879   PD        0.398011    0.499983    0.814968     0.005394
PD3880   PD        0.398826    0.534548    0.783181     0.005394
AU3881   AU        0.432075    0.502677    0.784209     0.007504
PD3882   PD        0.435647    0.533806    0.820266     0.005394
PD3883   PD        0.468843    0.499556    0.818475     0.005394
AU3884   AU        0.465447    0.533924    0.785146     0.007504
AU3885   AU        0.499136    0.500930    0.783037     0.007504
AU3886   AU        0.497906    0.534752    0.817635     0.007504
AU3887   AU        0.530196    0.499996    0.817784     0.007504
AU3888   AU        0.532192    0.535783    0.785303     0.007504
PD3889   PD        0.565493    0.502518    0.785141     0.005394
PD3890   PD        0.565685    0.535336    0.817249     0.005394
PD3891   PD        0.596048    0.502105    0.818559     0.005394
AU3892   AU        0.598375    0.536302    0.784852     0.007504
AU3893   AU        0.632628    0.501724    0.785393     0.007504
PD3894   PD        0.268765    0.636337    0.818602     0.005394
AU3895   AU        0.300244    0.566756    0.786246     0.007504
AU3896   AU        0.335823    0.565970    0.818427     0.007504
AU3897   AU        0.335608    0.599733    0.786049     0.007504
AU3898   AU        0.367863    0.569124    0.784594     0.007504
PD3899   PD        0.399318    0.600725    0.852127     0.005394
PD3900   PD        0.400920    0.563548    0.817129     0.005394
PD3901   PD        0.401466    0.603274    0.784129     0.005394
PD3902   PD        0.432738    0.569362    0.782748     0.005394
PD3903   PD        0.466603    0.605808    0.850269     0.005394
PD3904   PD        0.464553    0.567612    0.817417     0.005394
AU3905   AU        0.465124    0.599864    0.784628     0.007504
AU3906   AU        0.496954    0.567890    0.785576     0.007504
PD3907   PD        0.497408    0.602975    0.814499     0.005394
PD3908   PD        0.529644    0.566409    0.817788     0.005394
AU3909   AU        0.533032    0.600582    0.784164     0.007504
PD3910   PD        0.565476    0.567156    0.782571     0.005394
PD3911   PD        0.603375    0.599496    0.828937     0.005394
PD3912   PD        0.364905    0.636237    0.782411     0.005394
PD3913   PD        0.398269    0.669113    0.782477     0.005394
PD3914   PD        0.436136    0.637515    0.784252     0.005394
PD3915   PD        0.437603    0.644987    0.848936     0.005394
PD3916   PD        0.498546    0.630950    0.789226     0.005394
PD3917   PD        0.362654    0.311000    0.875785     0.005394
PD3918   PD        0.431955    0.369689    0.849795     0.005394
AU3919   AU        0.466825    0.400748    0.849812     0.007504
AU3920   AU        0.369545    0.436294    0.849833     0.007504
PD3921   PD        0.403737    0.467225    0.850370     0.005394
PD3922   PD        0.435048    0.433093    0.850765     0.005394
AU3923   AU        0.468373    0.464937    0.852004     0.007504
PD3924   PD        0.499076    0.432818    0.847902     0.005394
PD3925   PD        0.433789    0.496668    0.849008     0.005394
