data_00001
_audit_creation_method   'DISCUS'

_data_chemical_name_common 'Pd.cell: Pearson 85'

_cell_length_a             57.1046
_cell_length_b             57.1046
_cell_length_c             57.1046
_cell_angle_alpha     90.0000
_cell_angle_beta      90.0000
_cell_angle_gamma     90.0000

_symmetry_space_group_name_H-M   'P1              '

loop_
_atom_site_label
_atom_site_symbol
_atom_site_fract_x
_atom_site_fract_y
_atom_site_fract_z
_atom_site_u_iso_or_equiv
NI1   NI        0.308789    0.314610    0.044287     0.004307
NI2   NI        0.441865    0.248342    0.064517     0.004307
NI3   NI        0.480474    0.276095    0.054926     0.004307
NI4   NI        0.303003    0.358442    0.095807     0.004307
NI5   NI        0.312683    0.324189    0.065018     0.004307
NI6   NI        0.338374    0.328886    0.064357     0.004307
NI7   NI        0.381144    0.309739    0.070776     0.004307
NI8   NI        0.455085    0.397233    0.107223     0.004307
NI9   NI        0.491076    0.315784    0.080138     0.004307
NI10   NI        0.494471    0.357895    0.061853     0.004307
NI11   NI        0.565148    0.289910    0.053263     0.004307
NI12   NI        0.544375    0.302484    0.094739     0.004307
NI13   NI        0.247303    0.370102    0.073499     0.004307
NI14   NI        0.351965    0.412545    0.038357     0.004307
NI15   NI        0.322155    0.386752    0.066441     0.004307
NI16   NI        0.348375    0.427657    0.066037     0.004307
NI17   NI        0.381141    0.448332    0.072572     0.004307
NI18   NI        0.364714    0.452156    0.048060     0.004307
NI19   NI        0.432708    0.344098    0.013194     0.004307
NI20   NI        0.420481    0.426788    0.083449     0.004307
NI21   NI        0.489888    0.383303    0.030608     0.004307
NI22   NI        0.474649    0.445381    0.043377     0.004307
NI23   NI        0.522198    0.456005    0.055718     0.004307
NI24   NI        0.516496    0.347808    0.052946     0.004307
NI25   NI        0.570386    0.437093    0.063366     0.004307
NI26   NI        0.608280    0.358576    0.030094     0.004307
NI27   NI        0.251235    0.508519    0.054400     0.004307
NI28   NI        0.286448    0.479177    0.065502     0.004307
NI29   NI        0.303014    0.466130    0.077476     0.004307
NI30   NI        0.353218    0.438108    0.034312     0.004307
NI31   NI        0.370709    0.492154    0.058019     0.004307
NI32   NI        0.384704    0.455120    0.057573     0.004307
NI33   NI        0.410800    0.500785    0.050783     0.004307
NI34   NI        0.425413    0.464111    0.000714     0.004307
NI35   NI        0.446185    0.502030    0.090288     0.004307
NI36   NI        0.490027    0.452367    0.059363     0.004307
NI37   NI        0.454150    0.487795    0.029937     0.004307
NI38   NI        0.488223    0.448384    0.020535     0.004307
NI39   NI        0.476556    0.507033    0.054468     0.004307
NI40   NI        0.527886    0.448134    0.065282     0.004307
NI41   NI        0.555300    0.462126    0.100502     0.004307
NI42   NI        0.615442    0.425709    0.054820     0.004307
NI43   NI        0.266628    0.532173    0.076676     0.004307
NI44   NI        0.274949    0.525826    0.058071     0.004307
NI45   NI        0.356863    0.534848    0.039819     0.004307
NI46   NI        0.372067    0.591056    0.045431     0.004307
NI47   NI        0.393560    0.544244    0.098460     0.004307
NI48   NI        0.420618    0.520673    0.016174     0.004307
NI49   NI        0.419421    0.547505    0.056799     0.004307
NI50   NI        0.430965    0.514641    0.062440     0.004307
NI51   NI        0.469833    0.573870    0.059629     0.004307
NI52   NI        0.547372    0.541862    0.079152     0.004307
NI53   NI        0.563137    0.581195    0.056210     0.004307
NI54   NI        0.548280    0.541634    0.031055     0.004307
NI55   NI        0.324529    0.598911    0.052193     0.004307
NI56   NI        0.329738    0.607762    0.034340     0.004307
NI57   NI        0.365679    0.598224    0.045465     0.004307
NI58   NI        0.421614    0.658851    0.058633     0.004307
NI59   NI        0.491997    0.625044    0.066195     0.004307
NI60   NI        0.493769    0.615510    0.061155     0.004307
NI61   NI        0.538078    0.618697    0.047390     0.004307
NI62   NI        0.265094    0.199089    0.125024     0.004307
NI63   NI        0.351215    0.227161    0.133359     0.004307
NI64   NI        0.362443    0.163844    0.108349     0.004307
NI65   NI        0.386314    0.206138    0.107948     0.004307
NI66   NI        0.447904    0.192513    0.163727     0.004307
NI67   NI        0.449038    0.165425    0.133165     0.004307
NI68   NI        0.463272    0.258452    0.078047     0.004307
NI69   NI        0.497237    0.218578    0.089500     0.004307
NI70   NI        0.613116    0.269029    0.116443     0.004307
NI71   NI        0.191228    0.316761    0.149277     0.004307
NI72   NI        0.247805    0.243493    0.115635     0.004307
NI73   NI        0.245542    0.280012    0.123673     0.004307
NI74   NI        0.250046    0.288708    0.130385     0.004307
NI75   NI        0.310030    0.207473    0.140768     0.004307
NI76   NI        0.323602    0.283887    0.104257     0.004307
NI77   NI        0.375102    0.268937    0.130074     0.004307
PD78   PD        0.329727    0.265877    0.118694     0.005394
NI79   NI        0.377849    0.226714    0.109564     0.004307
NI80   NI        0.384135    0.244794    0.059638     0.004307
NI81   NI        0.403201    0.249157    0.093740     0.004307
NI82   NI        0.437650    0.271818    0.118203     0.004307
NI83   NI        0.447972    0.240035    0.156112     0.004307
NI84   NI        0.471841    0.257148    0.079776     0.004307
NI85   NI        0.481773    0.241735    0.034355     0.004307
NI86   NI        0.500179    0.257852    0.118242     0.004307
NI87   NI        0.520834    0.241684    0.123046     0.004307
NI88   NI        0.543784    0.261402    0.118583     0.004307
NI89   NI        0.591155    0.285605    0.142623     0.004307
NI90   NI        0.588068    0.202946    0.162772     0.004307
NI91   NI        0.582518    0.284175    0.097839     0.004307
NI92   NI        0.652720    0.297399    0.115398     0.004307
NI93   NI        0.154674    0.337041    0.119069     0.004307
NI94   NI        0.216735    0.346543    0.143687     0.004307
NI95   NI        0.257605    0.320740    0.138705     0.004307
NI96   NI        0.230646    0.367965    0.115510     0.004307
NI97   NI        0.274571    0.324312    0.095646     0.004307
NI98   NI        0.261140    0.364624    0.119936     0.004307
PD99   PD        0.315880    0.348600    0.167044     0.005394
NI100   NI        0.316847    0.314243    0.110710     0.004307
NI101   NI        0.343155    0.306602    0.099899     0.004307
PD102   PD        0.424596    0.334952    0.166430     0.005394
PD103   PD        0.395524    0.314020    0.134430     0.005394
NI104   NI        0.382930    0.353834    0.088217     0.004307
NI105   NI        0.386287    0.290451    0.114873     0.004307
PD106   PD        0.461252    0.349932    0.095620     0.005394
NI107   NI        0.462837    0.316546    0.124824     0.004307
NI108   NI        0.454069    0.350240    0.090589     0.004307
NI109   NI        0.482343    0.320431    0.063525     0.004307
PD110   PD        0.464962    0.383628    0.129117     0.005394
NI111   NI        0.486844    0.321224    0.164459     0.004307
PD112   PD        0.562356    0.384748    0.140989     0.005394
NI113   NI        0.593301    0.351343    0.127133     0.004307
NI114   NI        0.586526    0.345248    0.130452     0.004307
NI115   NI        0.588259    0.305165    0.141118     0.004307
NI116   NI        0.575983    0.316256    0.093768     0.004307
NI117   NI        0.637128    0.348321    0.107018     0.004307
NI118   NI        0.664858    0.309741    0.111126     0.004307
NI119   NI        0.152836    0.421140    0.108392     0.004307
NI120   NI        0.195800    0.352936    0.094839     0.004307
NI121   NI        0.218912    0.475049    0.136529     0.004307
NI122   NI        0.211302    0.398203    0.082424     0.004307
PD123   PD        0.196788    0.426418    0.176534     0.005394
NI124   NI        0.238167    0.370145    0.108936     0.004307
NI125   NI        0.263750    0.404248    0.103478     0.004307
NI126   NI        0.334071    0.387962    0.076306     0.004307
PD127   PD        0.298234    0.421273    0.132763     0.005394
NI128   NI        0.300915    0.347885    0.137057     0.004307
NI129   NI        0.309748    0.403697    0.089156     0.004307
NI130   NI        0.339434    0.342398    0.069564     0.004307
NI131   NI        0.378431    0.396493    0.139108     0.004307
NI132   NI        0.381049    0.372513    0.123611     0.004307
NI133   NI        0.391336    0.377209    0.133310     0.004307
PD134   PD        0.422628    0.380640    0.096010     0.005394
PD135   PD        0.385423    0.442793    0.137314     0.005394
PD136   PD        0.421582    0.388729    0.141311     0.005394
NI137   NI        0.488274    0.411162    0.073436     0.004307
NI138   NI        0.498865    0.379244    0.085589     0.004307
NI139   NI        0.518049    0.385880    0.124181     0.004307
NI140   NI        0.516267    0.341731    0.110928     0.004307
NI141   NI        0.567752    0.419398    0.068351     0.004307
PD142   PD        0.514905    0.361558    0.143050     0.005394
NI143   NI        0.525981    0.402380    0.118660     0.004307
NI144   NI        0.626351    0.375895    0.113529     0.004307
NI145   NI        0.547632    0.405192    0.133112     0.004307
NI146   NI        0.660595    0.376435    0.062607     0.004307
NI147   NI        0.628135    0.305095    0.167113     0.004307
PD148   PD        0.623122    0.421988    0.184453     0.005394
NI149   NI        0.655959    0.412650    0.092464     0.004307
NI150   NI        0.673236    0.415970    0.135956     0.004307
NI151   NI        0.140264    0.499882    0.089201     0.004307
NI152   NI        0.185689    0.450985    0.137709     0.004307
NI153   NI        0.132641    0.444648    0.112532     0.004307
NI154   NI        0.162448    0.463215    0.064853     0.004307
NI155   NI        0.215712    0.486247    0.123889     0.004307
NI156   NI        0.248939    0.398092    0.146916     0.004307
NI157   NI        0.262884    0.487098    0.110210     0.004307
NI158   NI        0.284408    0.445144    0.095816     0.004307
NI159   NI        0.265168    0.486996    0.085813     0.004307
NI160   NI        0.352905    0.493648    0.153214     0.004307
NI161   NI        0.348075    0.473237    0.090547     0.004307
NI162   NI        0.337101    0.432233    0.079324     0.004307
PD163   PD        0.352842    0.476644    0.130894     0.005394
PD164   PD        0.405432    0.457668    0.121402     0.005394
PD165   PD        0.422127    0.471323    0.129693     0.005394
NI166   NI        0.446172    0.433892    0.083942     0.004307
PD167   PD        0.419292    0.486792    0.127633     0.005394
PD168   PD        0.443943    0.428038    0.126501     0.005394
NI169   NI        0.454642    0.483345    0.096427     0.004307
NI170   NI        0.478806    0.484001    0.095197     0.004307
PD171   PD        0.454408    0.488602    0.160973     0.005394
NI172   NI        0.531432    0.425044    0.127796     0.004307
NI173   NI        0.523484    0.500537    0.093995     0.004307
NI174   NI        0.541136    0.457489    0.083244     0.004307
PD175   PD        0.546574    0.472321    0.126895     0.005394
NI176   NI        0.558940    0.493820    0.166687     0.004307
NI177   NI        0.625449    0.521324    0.100669     0.004307
NI178   NI        0.642899    0.492708    0.097453     0.004307
NI179   NI        0.624488    0.493256    0.140344     0.004307
NI180   NI        0.657600    0.452844    0.124158     0.004307
NI181   NI        0.649418    0.516384    0.060940     0.004307
NI182   NI        0.699489    0.524444    0.119052     0.004307
NI183   NI        0.164902    0.529080    0.117706     0.004307
NI184   NI        0.185379    0.552832    0.059468     0.004307
NI185   NI        0.206983    0.548469    0.100847     0.004307
NI186   NI        0.252683    0.516800    0.120623     0.004307
NI187   NI        0.286749    0.527551    0.119907     0.004307
NI188   NI        0.310931    0.514233    0.082290     0.004307
NI189   NI        0.329411    0.549642    0.118838     0.004307
NI190   NI        0.233242    0.521132    0.128769     0.004307
NI191   NI        0.349675    0.572831    0.083384     0.004307
NI192   NI        0.328706    0.484353    0.111883     0.004307
NI193   NI        0.336739    0.588961    0.162292     0.004307
PD194   PD        0.380915    0.514846    0.132232     0.005394
NI195   NI        0.379585    0.571799    0.112294     0.004307
PD196   PD        0.410938    0.531086    0.103052     0.005394
PD197   PD        0.413043    0.553499    0.132757     0.005394
NI198   NI        0.472311    0.537845    0.131909     0.004307
NI199   NI        0.454594    0.549446    0.087179     0.004307
NI200   NI        0.540506    0.517488    0.110219     0.004307
PD201   PD        0.505051    0.559034    0.123828     0.005394
PD202   PD        0.532795    0.518618    0.135847     0.005394
NI203   NI        0.545104    0.571453    0.053793     0.004307
NI204   NI        0.554192    0.555204    0.126637     0.004307
NI205   NI        0.548974    0.544533    0.111495     0.004307
PD206   PD        0.603037    0.486647    0.177816     0.005394
NI207   NI        0.569539    0.508956    0.104913     0.004307
NI208   NI        0.602465    0.580504    0.084876     0.004307
NI209   NI        0.637806    0.557884    0.129406     0.004307
NI210   NI        0.665646    0.518240    0.128929     0.004307
NI211   NI        0.195334    0.599747    0.067741     0.004307
NI212   NI        0.218353    0.631079    0.144691     0.004307
NI213   NI        0.225508    0.593730    0.102409     0.004307
NI214   NI        0.242519    0.685840    0.115187     0.004307
NI215   NI        0.242321    0.602078    0.074636     0.004307
NI216   NI        0.256705    0.655533    0.149286     0.004307
NI217   NI        0.328407    0.600307    0.116340     0.004307
NI218   NI        0.315155    0.641859    0.064966     0.004307
NI219   NI        0.370392    0.604363    0.092120     0.004307
NI220   NI        0.322096    0.646517    0.124131     0.004307
PD221   PD        0.339851    0.600493    0.162075     0.005394
NI222   NI        0.372534    0.613639    0.086698     0.004307
PD223   PD        0.384595    0.596127    0.152807     0.005394
NI224   NI        0.393714    0.629577    0.146230     0.004307
PD225   PD        0.465627    0.585561    0.138108     0.005394
NI226   NI        0.420991    0.624686    0.087801     0.004307
NI227   NI        0.479172    0.582831    0.064258     0.004307
NI228   NI        0.453666    0.594837    0.102102     0.004307
NI229   NI        0.526108    0.602636    0.129973     0.004307
NI230   NI        0.501050    0.542606    0.077097     0.004307
NI231   NI        0.571383    0.542733    0.084271     0.004307
NI232   NI        0.538427    0.588663    0.137579     0.004307
NI233   NI        0.602725    0.584086    0.154151     0.004307
NI234   NI        0.586112    0.620721    0.108116     0.004307
NI235   NI        0.618680    0.582142    0.166412     0.004307
NI236   NI        0.633493    0.589706    0.181074     0.004307
NI237   NI        0.282892    0.666605    0.129735     0.004307
NI238   NI        0.273522    0.689717    0.118611     0.004307
NI239   NI        0.302144    0.670752    0.087585     0.004307
NI240   NI        0.320062    0.603139    0.117370     0.004307
NI241   NI        0.340881    0.644286    0.102752     0.004307
PD242   PD        0.398116    0.656444    0.130406     0.005394
NI243   NI        0.423916    0.672740    0.093883     0.004307
NI244   NI        0.421267    0.629025    0.098538     0.004307
NI245   NI        0.414820    0.699616    0.139273     0.004307
NI246   NI        0.422944    0.616299    0.131226     0.004307
NI247   NI        0.427640    0.664666    0.141221     0.004307
NI248   NI        0.510429    0.661876    0.051904     0.004307
NI249   NI        0.494251    0.662029    0.136425     0.004307
NI250   NI        0.498062    0.626518    0.072746     0.004307
NI251   NI        0.568941    0.674282    0.144191     0.004307
NI252   NI        0.616406    0.660927    0.105149     0.004307
NI253   NI        0.380234    0.756827    0.138758     0.004307
NI254   NI        0.412481    0.736900    0.110955     0.004307
NI255   NI        0.283275    0.151776    0.204863     0.004307
NI256   NI        0.354074    0.141225    0.198278     0.004307
NI257   NI        0.369311    0.111009    0.226101     0.004307
NI258   NI        0.403547    0.112731    0.123633     0.004307
NI259   NI        0.419030    0.140631    0.201706     0.004307
NI260   NI        0.464936    0.123316    0.204543     0.004307
NI261   NI        0.461029    0.102802    0.124986     0.004307
NI262   NI        0.507934    0.143188    0.190788     0.004307
NI263   NI        0.556588    0.152699    0.197025     0.004307
NI264   NI        0.218118    0.180109    0.162068     0.004307
NI265   NI        0.208367    0.187837    0.215527     0.004307
NI266   NI        0.228062    0.195449    0.154358     0.004307
NI267   NI        0.293055    0.175686    0.166020     0.004307
NI268   NI        0.251621    0.186056    0.194222     0.004307
PD269   PD        0.330926    0.205384    0.175255     0.005394
NI270   NI        0.322253    0.223985    0.172374     0.004307
NI271   NI        0.346020    0.181739    0.122208     0.004307
PD272   PD        0.328288    0.231295    0.207562     0.005394
PD273   PD        0.413692    0.217895    0.185522     0.005394
PD274   PD        0.411798    0.186115    0.206583     0.005394
NI275   NI        0.431492    0.169796    0.164727     0.004307
PD276   PD        0.418539    0.225250    0.183583     0.005394
NI277   NI        0.431148    0.172302    0.184775     0.004307
NI278   NI        0.455855    0.204869    0.162725     0.004307
NI279   NI        0.482386    0.177197    0.162506     0.004307
NI280   NI        0.478220    0.210607    0.197433     0.004307
NI281   NI        0.470865    0.196850    0.166981     0.004307
NI282   NI        0.552390    0.203846    0.152444     0.004307
NI283   NI        0.573043    0.161510    0.146797     0.004307
PD284   PD        0.585728    0.215765    0.228687     0.005394
NI285   NI        0.621275    0.217005    0.196370     0.004307
NI286   NI        0.589687    0.235212    0.144060     0.004307
NI287   NI        0.663062    0.192306    0.195874     0.004307
NI288   NI        0.128685    0.292869    0.198993     0.004307
NI289   NI        0.155813    0.231152    0.202774     0.004307
NI290   NI        0.192088    0.246923    0.230187     0.004307
NI291   NI        0.197935    0.242467    0.183707     0.004307
NI292   NI        0.208485    0.294576    0.217089     0.004307
NI293   NI        0.241595    0.242748    0.162465     0.004307
NI294   NI        0.260417    0.253364    0.160496     0.004307
NI295   NI        0.271410    0.253199    0.152868     0.004307
PD296   PD        0.297580    0.257721    0.225370     0.005394
PD297   PD        0.340492    0.247669    0.205303     0.005394
PD298   PD        0.318194    0.249736    0.162152     0.005394
PD299   PD        0.366058    0.241775    0.164343     0.005394
PD300   PD        0.298692    0.303919    0.218132     0.005394
PD301   PD        0.403254    0.234129    0.228808     0.005394
PD302   PD        0.382131    0.268680    0.198395     0.005394
PD303   PD        0.431501    0.245273    0.168219     0.005394
PD304   PD        0.395696    0.247744    0.200855     0.005394
PD305   PD        0.449636    0.251740    0.193363     0.005394
PD306   PD        0.454230    0.287077    0.161134     0.005394
NI307   NI        0.463791    0.270308    0.143296     0.004307
PD308   PD        0.483946    0.284492    0.196096     0.005394
PD309   PD        0.559181    0.256764    0.222363     0.005394
NI310   NI        0.524385    0.273475    0.158656     0.004307
NI311   NI        0.566600    0.245329    0.171130     0.004307
PD312   PD        0.562153    0.307429    0.171479     0.005394
NI313   NI        0.574965    0.226314    0.187935     0.004307
NI314   NI        0.612739    0.243717    0.156908     0.004307
NI315   NI        0.649502    0.260701    0.173108     0.004307
NI316   NI        0.634472    0.284299    0.194083     0.004307
NI317   NI        0.658077    0.236428    0.189171     0.004307
NI318   NI        0.716727    0.293099    0.203261     0.004307
NI319   NI        0.734684    0.291939    0.213451     0.004307
NI320   NI        0.150424    0.317094    0.164245     0.004307
NI321   NI        0.162987    0.313525    0.214905     0.004307
NI322   NI        0.084769    0.375617    0.248712     0.004307
NI323   NI        0.141155    0.333157    0.194910     0.004307
NI324   NI        0.152561    0.293141    0.134808     0.004307
NI325   NI        0.219839    0.303134    0.157558     0.004307
PD326   PD        0.235651    0.358048    0.218881     0.005394
PD327   PD        0.238561    0.313078    0.199179     0.005394
NI328   NI        0.208181    0.345096    0.183871     0.004307
PD329   PD        0.279256    0.296649    0.174193     0.005394
PD330   PD        0.275666    0.337947    0.194638     0.005394
PD331   PD        0.322785    0.310793    0.190138     0.005394
PD332   PD        0.345499    0.356026    0.151212     0.005394
NI333   NI        0.336013    0.323124    0.129462     0.004307
PD334   PD        0.352346    0.348823    0.198150     0.005394
PD335   PD        0.381711    0.338496    0.235212     0.005394
PD336   PD        0.380745    0.324305    0.149821     0.005394
PD337   PD        0.443953    0.318051    0.127321     0.005394
PD338   PD        0.469049    0.332828    0.178860     0.005394
PD339   PD        0.466923    0.317697    0.192711     0.005394
NI340   NI        0.474589    0.354681    0.162390     0.004307
PD341   PD        0.490014    0.278197    0.182674     0.005394
PD342   PD        0.495167    0.328842    0.216726     0.005394
PD343   PD        0.498296    0.283075    0.200462     0.005394
PD344   PD        0.593497    0.395999    0.202637     0.005394
PD345   PD        0.563718    0.293908    0.179684     0.005394
PD346   PD        0.551429    0.337976    0.193915     0.005394
PD347   PD        0.592879    0.303901    0.188587     0.005394
PD348   PD        0.592741    0.340067    0.154005     0.005394
NI349   NI        0.629163    0.308479    0.156701     0.004307
PD350   PD        0.650555    0.341247    0.185374     0.005394
NI351   NI        0.655353    0.319840    0.197458     0.004307
PD352   PD        0.626220    0.382350    0.195261     0.005394
NI353   NI        0.639554    0.298080    0.201375     0.004307
NI354   NI        0.694785    0.336424    0.198619     0.004307
NI355   NI        0.763048    0.291728    0.211872     0.004307
NI356   NI        0.077759    0.426340    0.204326     0.004307
NI357   NI        0.110060    0.391471    0.202896     0.004307
NI358   NI        0.116233    0.434057    0.194868     0.004307
NI359   NI        0.136727    0.328045    0.163953     0.004307
NI360   NI        0.131938    0.429999    0.211097     0.004307
PD361   PD        0.194082    0.376119    0.199274     0.005394
NI362   NI        0.185457    0.413144    0.168121     0.004307
NI363   NI        0.224190    0.388050    0.180778     0.004307
PD364   PD        0.236158    0.421189    0.206157     0.005394
NI365   NI        0.228734    0.396302    0.190145     0.004307
PD366   PD        0.224094    0.387911    0.164914     0.005394
PD367   PD        0.260048    0.401356    0.152244     0.005394
PD368   PD        0.279211    0.421838    0.191442     0.005394
PD369   PD        0.324216    0.380233    0.201856     0.005394
NI370   NI        0.308937    0.434324    0.155321     0.004307
PD371   PD        0.352902    0.385784    0.157625     0.005394
PD372   PD        0.344921    0.416311    0.206381     0.005394
PD373   PD        0.381704    0.386654    0.197299     0.005394
PD374   PD        0.389877    0.416909    0.161766     0.005394
PD375   PD        0.389340    0.366776    0.172873     0.005394
PD376   PD        0.420379    0.416277    0.192141     0.005394
PD377   PD        0.454112    0.382689    0.199432     0.005394
PD378   PD        0.457064    0.415208    0.164999     0.005394
PD379   PD        0.483145    0.363676    0.186049     0.005394
PD380   PD        0.502299    0.407605    0.180258     0.005394
PD381   PD        0.517637    0.363223    0.189831     0.005394
PD382   PD        0.512503    0.405108    0.166240     0.005394
PD383   PD        0.543310    0.398006    0.180753     0.005394
PD384   PD        0.564235    0.377570    0.169071     0.005394
PD385   PD        0.595750    0.387541    0.202093     0.005394
PD386   PD        0.580533    0.421257    0.164447     0.005394
PD387   PD        0.622680    0.377223    0.166828     0.005394
NI388   NI        0.638121    0.412249    0.193157     0.004307
NI389   NI        0.720785    0.375212    0.193202     0.004307
NI390   NI        0.700352    0.412004    0.166423     0.004307
NI391   NI        0.708917    0.373647    0.143224     0.004307
PD392   PD        0.701729    0.416046    0.213699     0.005394
NI393   NI        0.768248    0.375495    0.190156     0.004307
NI394   NI        0.736573    0.439573    0.143498     0.004307
NI395   NI        0.765411    0.428642    0.204096     0.004307
NI396   NI        0.000714    0.456730    0.190394     0.004307
NI397   NI        0.121264    0.485396    0.179794     0.004307
NI398   NI        0.148433    0.492354    0.192543     0.004307
NI399   NI        0.141554    0.479133    0.143918     0.004307
NI400   NI        0.136846    0.495412    0.188145     0.004307
NI401   NI        0.155682    0.451721    0.174327     0.004307
NI402   NI        0.182798    0.490939    0.163116     0.004307
NI403   NI        0.239752    0.391935    0.208030     0.004307
PD404   PD        0.268430    0.513043    0.193650     0.005394
PD405   PD        0.254289    0.462958    0.184862     0.005394
PD406   PD        0.250011    0.485842    0.157542     0.005394
PD407   PD        0.285139    0.480310    0.201644     0.005394
PD408   PD        0.279349    0.490923    0.193773     0.005394
PD409   PD        0.316667    0.451355    0.197517     0.005394
NI410   NI        0.334669    0.493286    0.149202     0.004307
PD411   PD        0.344591    0.463627    0.155003     0.005394
PD412   PD        0.362679    0.494300    0.188290     0.005394
PD413   PD        0.391716    0.447998    0.201431     0.005394
PD414   PD        0.388396    0.479227    0.163901     0.005394
PD415   PD        0.424413    0.450973    0.163940     0.005394
PD416   PD        0.423561    0.485190    0.196658     0.005394
PD417   PD        0.450499    0.427366    0.195155     0.005394
PD418   PD        0.475362    0.499406    0.159455     0.005394
PD419   PD        0.491633    0.451344    0.168490     0.005394
PD420   PD        0.500302    0.484811    0.150259     0.005394
PD421   PD        0.571050    0.505888    0.235193     0.005394
PD422   PD        0.520561    0.489168    0.168896     0.005394
PD423   PD        0.560940    0.461469    0.167632     0.005394
PD424   PD        0.566432    0.476724    0.199197     0.005394
PD425   PD        0.621324    0.418543    0.192322     0.005394
PD426   PD        0.603777    0.484489    0.164256     0.005394
NI427   NI        0.649982    0.479571    0.163524     0.004307
PD428   PD        0.640282    0.499809    0.206858     0.005394
PD429   PD        0.667098    0.437599    0.191640     0.005394
NI430   NI        0.673475    0.497011    0.130701     0.004307
NI431   NI        0.692468    0.457224    0.154406     0.004307
NI432   NI        0.706450    0.460440    0.175261     0.004307
NI433   NI        0.741904    0.469885    0.204399     0.004307
NI434   NI        0.737870    0.488674    0.184244     0.004307
NI435   NI        0.741697    0.437745    0.197441     0.004307
NI436   NI        0.110082    0.512575    0.215230     0.004307
NI437   NI        0.105489    0.512247    0.144511     0.004307
NI438   NI        0.182766    0.564920    0.191698     0.004307
PD439   PD        0.193482    0.519795    0.201676     0.005394
NI440   NI        0.183033    0.551529    0.142986     0.004307
NI441   NI        0.215325    0.514964    0.164695     0.004307
PD442   PD        0.215949    0.560929    0.200201     0.005394
NI443   NI        0.223121    0.519613    0.178078     0.004307
PD444   PD        0.230046    0.557091    0.185396     0.005394
NI445   NI        0.245241    0.494349    0.161881     0.004307
PD446   PD        0.277761    0.557650    0.190699     0.005394
PD447   PD        0.320034    0.514338    0.197533     0.005394
NI448   NI        0.331269    0.552915    0.162200     0.004307
PD449   PD        0.354937    0.518376    0.167962     0.005394
PD450   PD        0.387939    0.515664    0.202188     0.005394
PD451   PD        0.388920    0.516205    0.201431     0.005394
PD452   PD        0.384522    0.584596    0.159309     0.005394
PD453   PD        0.416436    0.519303    0.162749     0.005394
PD454   PD        0.410415    0.545710    0.185076     0.005394
PD455   PD        0.451860    0.522827    0.195424     0.005394
PD456   PD        0.454887    0.541759    0.153804     0.005394
PD457   PD        0.482622    0.529756    0.157253     0.005394
PD458   PD        0.487655    0.557462    0.195503     0.005394
PD459   PD        0.516978    0.524020    0.202492     0.005394
PD460   PD        0.563105    0.521932    0.189496     0.005394
PD461   PD        0.564303    0.510783    0.172104     0.005394
PD462   PD        0.572294    0.563924    0.209237     0.005394
NI463   NI        0.605366    0.551623    0.172841     0.004307
NI464   NI        0.605124    0.552433    0.174149     0.004307
NI465   NI        0.652512    0.524309    0.130736     0.004307
PD466   PD        0.631943    0.558305    0.206320     0.005394
NI467   NI        0.650971    0.550619    0.189300     0.004307
PD468   PD        0.653669    0.551326    0.163225     0.005394
NI469   NI        0.699900    0.536501    0.175570     0.004307
NI470   NI        0.685577    0.532697    0.193148     0.004307
NI471   NI        0.723471    0.500576    0.197672     0.004307
NI472   NI        0.134941    0.631812    0.173161     0.004307
NI473   NI        0.162970    0.587968    0.162041     0.004307
NI474   NI        0.186161    0.612983    0.199317     0.004307
NI475   NI        0.184136    0.564348    0.191452     0.004307
NI476   NI        0.179262    0.629798    0.154092     0.004307
PD477   PD        0.210194    0.596519    0.168734     0.005394
NI478   NI        0.223336    0.626888    0.227472     0.004307
NI479   NI        0.254474    0.659135    0.207876     0.004307
NI480   NI        0.261174    0.628874    0.152564     0.004307
PD481   PD        0.304157    0.595825    0.181189     0.005394
PD482   PD        0.300544    0.608693    0.188861     0.005394
PD483   PD        0.269540    0.576761    0.207452     0.005394
NI484   NI        0.336184    0.648244    0.169647     0.004307
NI485   NI        0.365392    0.597290    0.175712     0.004307
PD486   PD        0.347717    0.611472    0.179077     0.005394
PD487   PD        0.394728    0.609852    0.212645     0.005394
PD488   PD        0.388182    0.625441    0.168231     0.005394
PD489   PD        0.420156    0.587370    0.165219     0.005394
PD490   PD        0.461572    0.602004    0.184832     0.005394
PD491   PD        0.462219    0.592869    0.186059     0.005394
NI492   NI        0.456337    0.634813    0.161206     0.004307
PD493   PD        0.487363    0.573978    0.162681     0.005394
PD494   PD        0.500429    0.619390    0.206019     0.005394
PD495   PD        0.515551    0.571661    0.200281     0.005394
NI496   NI        0.540757    0.608382    0.168014     0.004307
NI497   NI        0.583030    0.627832    0.156662     0.004307
NI498   NI        0.547047    0.626957    0.208536     0.004307
PD499   PD        0.589940    0.584971    0.203475     0.005394
NI500   NI        0.583701    0.628843    0.156181     0.004307
NI501   NI        0.606698    0.563325    0.164614     0.004307
NI502   NI        0.686653    0.582074    0.178886     0.004307
NI503   NI        0.661488    0.591612    0.186091     0.004307
NI504   NI        0.650001    0.635764    0.178117     0.004307
NI505   NI        0.713651    0.605774    0.221600     0.004307
NI506   NI        0.688294    0.623976    0.204528     0.004307
NI507   NI        0.700985    0.559093    0.219186     0.004307
NI508   NI        0.171252    0.667440    0.193308     0.004307
NI509   NI        0.222165    0.641083    0.181504     0.004307
NI510   NI        0.226848    0.709090    0.214351     0.004307
NI511   NI        0.251378    0.657024    0.230080     0.004307
NI512   NI        0.269337    0.656720    0.132953     0.004307
NI513   NI        0.291186    0.657096    0.175017     0.004307
NI514   NI        0.290052    0.658039    0.174924     0.004307
PD515   PD        0.326855    0.644781    0.170962     0.005394
NI516   NI        0.319805    0.693820    0.168140     0.004307
PD517   PD        0.323832    0.628063    0.194524     0.005394
NI518   NI        0.372678    0.714592    0.218945     0.004307
PD519   PD        0.389623    0.646395    0.213853     0.005394
PD520   PD        0.418079    0.661947    0.173715     0.005394
NI521   NI        0.416649    0.652094    0.141696     0.004307
NI522   NI        0.433617    0.744673    0.171142     0.004307
PD523   PD        0.443417    0.608107    0.209200     0.005394
NI524   NI        0.464623    0.713599    0.129018     0.004307
NI525   NI        0.499612    0.658475    0.158802     0.004307
PD526   PD        0.484986    0.693226    0.213573     0.005394
NI527   NI        0.560125    0.651615    0.166884     0.004307
PD528   PD        0.532533    0.691146    0.172930     0.005394
NI529   NI        0.574523    0.654861    0.161951     0.004307
NI530   NI        0.563550    0.732235    0.219593     0.004307
NI531   NI        0.614520    0.628928    0.171294     0.004307
NI532   NI        0.635235    0.717308    0.203703     0.004307
NI533   NI        0.635710    0.661271    0.151187     0.004307
NI534   NI        0.608252    0.683676    0.183432     0.004307
NI535   NI        0.674769    0.674979    0.194198     0.004307
NI536   NI        0.207669    0.709877    0.232714     0.004307
NI537   NI        0.284027    0.764633    0.149216     0.004307
NI538   NI        0.272568    0.776197    0.227652     0.004307
NI539   NI        0.313245    0.709595    0.208721     0.004307
NI540   NI        0.351974    0.767296    0.145846     0.004307
NI541   NI        0.372221    0.752548    0.188876     0.004307
NI542   NI        0.362111    0.715701    0.208511     0.004307
NI543   NI        0.389117    0.738104    0.151523     0.004307
NI544   NI        0.369154    0.731955    0.174564     0.004307
NI545   NI        0.440451    0.764095    0.224664     0.004307
NI546   NI        0.427314    0.701051    0.216267     0.004307
NI547   NI        0.413789    0.718875    0.179051     0.004307
NI548   NI        0.496050    0.723555    0.177279     0.004307
NI549   NI        0.481272    0.742259    0.207532     0.004307
NI550   NI        0.511981    0.716480    0.183740     0.004307
NI551   NI        0.529942    0.675081    0.166799     0.004307
NI552   NI        0.566817    0.754332    0.203717     0.004307
NI553   NI        0.598234    0.698942    0.177063     0.004307
NI554   NI        0.348612    0.802219    0.254242     0.004307
NI555   NI        0.454769    0.794127    0.187097     0.004307
NI556   NI        0.349524    0.071452    0.268468     0.004307
NI557   NI        0.427373    0.092532    0.200897     0.004307
NI558   NI        0.499936    0.078356    0.255510     0.004307
NI559   NI        0.224977    0.141047    0.267604     0.004307
NI560   NI        0.232353    0.117294    0.270198     0.004307
NI561   NI        0.278383    0.192885    0.206802     0.004307
NI562   NI        0.297428    0.120401    0.322642     0.004307
NI563   NI        0.326600    0.091957    0.269847     0.004307
NI564   NI        0.327390    0.181806    0.207147     0.004307
NI565   NI        0.340330    0.104577    0.227363     0.004307
NI566   NI        0.384459    0.125681    0.260318     0.004307
NI567   NI        0.396615    0.140697    0.274046     0.004307
NI568   NI        0.401227    0.120594    0.258189     0.004307
NI569   NI        0.469352    0.088171    0.220466     0.004307
PD570   PD        0.439810    0.124684    0.285891     0.005394
NI571   NI        0.442358    0.138556    0.242358     0.004307
NI572   NI        0.496221    0.125092    0.241809     0.004307
NI573   NI        0.513762    0.082823    0.210687     0.004307
NI574   NI        0.483589    0.134199    0.287162     0.004307
NI575   NI        0.525143    0.111136    0.280196     0.004307
NI576   NI        0.523513    0.134818    0.239393     0.004307
NI577   NI        0.547149    0.086377    0.245669     0.004307
NI578   NI        0.605629    0.108896    0.258416     0.004307
NI579   NI        0.599529    0.159734    0.240842     0.004307
NI580   NI        0.633919    0.145670    0.267783     0.004307
NI581   NI        0.142569    0.207815    0.260199     0.004307
NI582   NI        0.161798    0.152144    0.277962     0.004307
NI583   NI        0.191113    0.242141    0.206681     0.004307
NI584   NI        0.204518    0.163049    0.229047     0.004307
NI585   NI        0.202792    0.198636    0.278214     0.004307
NI586   NI        0.242455    0.183013    0.248946     0.004307
PD587   PD        0.264037    0.238766    0.280234     0.005394
NI588   NI        0.281747    0.155626    0.237074     0.004307
PD589   PD        0.279401    0.205375    0.271533     0.005394
NI590   NI        0.316784    0.175112    0.262426     0.004307
PD591   PD        0.347720    0.191497    0.228373     0.005394
PD592   PD        0.367552    0.207753    0.204388     0.005394
PD593   PD        0.325471    0.176340    0.268095     0.005394
PD594   PD        0.406739    0.162249    0.282269     0.005394
PD595   PD        0.428890    0.218730    0.266910     0.005394
NI596   NI        0.426204    0.154704    0.239847     0.004307
PD597   PD        0.419223    0.201802    0.263596     0.005394
NI598   NI        0.444441    0.161670    0.254391     0.004307
PD599   PD        0.464363    0.242198    0.238375     0.005394
NI600   NI        0.451088    0.205705    0.187878     0.004307
NI601   NI        0.482468    0.181125    0.277831     0.004307
PD602   PD        0.526515    0.211020    0.248037     0.005394
PD603   PD        0.538936    0.211550    0.213959     0.005394
NI604   NI        0.573099    0.134923    0.209670     0.004307
PD605   PD        0.563636    0.181618    0.257254     0.005394
NI606   NI        0.578208    0.162156    0.267558     0.004307
PD607   PD        0.584366    0.218751    0.206919     0.005394
NI608   NI        0.640801    0.143216    0.259429     0.004307
PD609   PD        0.581005    0.226446    0.254861     0.005394
NI610   NI        0.630491    0.163355    0.303094     0.004307
NI611   NI        0.657276    0.195705    0.243798     0.004307
NI612   NI        0.706611    0.168956    0.253236     0.004307
NI613   NI        0.106061    0.313789    0.277714     0.004307
NI614   NI        0.107695    0.236549    0.275986     0.004307
NI615   NI        0.120934    0.302362    0.227273     0.004307
NI616   NI        0.114725    0.276542    0.224746     0.004307
PD617   PD        0.141776    0.285830    0.263983     0.005394
NI618   NI        0.180245    0.258105    0.273246     0.004307
NI619   NI        0.163403    0.285668    0.222900     0.004307
NI620   NI        0.191800    0.245777    0.230118     0.004307
PD621   PD        0.222374    0.272928    0.258293     0.005394
PD622   PD        0.247356    0.240824    0.269668     0.005394
NI623   NI        0.224060    0.277702    0.249247     0.004307
PD624   PD        0.281433    0.239580    0.235758     0.005394
PD625   PD        0.280189    0.274797    0.277669     0.005394
PD626   PD        0.314177    0.237850    0.267658     0.005394
PD627   PD        0.323532    0.277376    0.224540     0.005394
PD628   PD        0.339245    0.231070    0.254658     0.005394
PD629   PD        0.347499    0.273266    0.276409     0.005394
PD630   PD        0.393984    0.243837    0.275898     0.005394
PD631   PD        0.403418    0.265232    0.202465     0.005394
PD632   PD        0.407941    0.247559    0.264662     0.005394
PD633   PD        0.435970    0.267677    0.262568     0.005394
PD634   PD        0.453361    0.281083    0.302680     0.005394
PD635   PD        0.444084    0.284052    0.220147     0.005394
PD636   PD        0.505411    0.245731    0.214375     0.005394
PD637   PD        0.481904    0.278503    0.266059     0.005394
PD638   PD        0.548635    0.246093    0.225137     0.005394
PD639   PD        0.543617    0.284691    0.254543     0.005394
PD640   PD        0.548578    0.251836    0.236030     0.005394
PD641   PD        0.589066    0.261205    0.260402     0.005394
NI642   NI        0.613702    0.249820    0.228407     0.004307
PD643   PD        0.584486    0.273475    0.258531     0.005394
NI644   NI        0.608515    0.259246    0.221239     0.004307
PD645   PD        0.635774    0.275374    0.257319     0.005394
PD646   PD        0.657048    0.243566    0.318185     0.005394
NI647   NI        0.641545    0.302808    0.238284     0.004307
NI648   NI        0.648511    0.228568    0.255381     0.004307
NI649   NI        0.683274    0.261517    0.251869     0.004307
NI650   NI        0.746313    0.236470    0.274582     0.004307
NI651   NI        0.707088    0.255060    0.211775     0.004307
NI652   NI        0.754878    0.297765    0.258031     0.004307
NI653   NI        0.091523    0.331761    0.316950     0.004307
NI654   NI        0.121337    0.293245    0.284601     0.004307
NI655   NI        0.096427    0.266371    0.270500     0.004307
NI656   NI        0.132438    0.320173    0.209305     0.004307
PD657   PD        0.195683    0.343709    0.293641     0.005394
PD658   PD        0.185655    0.304882    0.260208     0.005394
PD659   PD        0.198737    0.339114    0.228694     0.005394
PD660   PD        0.238199    0.317031    0.245417     0.005394
PD661   PD        0.196691    0.366577    0.266547     0.005394
PD662   PD        0.246170    0.307500    0.264724     0.005394
PD663   PD        0.256145    0.345238    0.237218     0.005394
PD664   PD        0.283872    0.304695    0.230727     0.005394
PD665   PD        0.279267    0.341110    0.262484     0.005394
PD666   PD        0.314467    0.307055    0.274976     0.005394
PD667   PD        0.325081    0.354975    0.209956     0.005394
PD668   PD        0.346369    0.319679    0.227161     0.005394
PD669   PD        0.348835    0.343354    0.270026     0.005394
PD670   PD        0.382040    0.308914    0.271891     0.005394
PD671   PD        0.386613    0.343719    0.222776     0.005394
PD672   PD        0.428501    0.289377    0.236329     0.005394
PD673   PD        0.426929    0.348716    0.271453     0.005394
PD674   PD        0.437226    0.307582    0.249670     0.005394
PD675   PD        0.484136    0.351543    0.221748     0.005394
PD676   PD        0.481724    0.304224    0.228292     0.005394
PD677   PD        0.473774    0.334019    0.262878     0.005394
PD678   PD        0.530790    0.320112    0.269677     0.005394
PD679   PD        0.531765    0.350599    0.235132     0.005394
PD680   PD        0.558158    0.312270    0.219867     0.005394
PD681   PD        0.554344    0.351440    0.266927     0.005394
PD682   PD        0.608502    0.303183    0.271582     0.005394
NI683   NI        0.582175    0.298991    0.234283     0.004307
PD684   PD        0.623932    0.324002    0.229973     0.005394
PD685   PD        0.583576    0.380243    0.247247     0.005394
PD686   PD        0.694155    0.294358    0.284947     0.005394
PD687   PD        0.663678    0.351904    0.233105     0.005394
NI688   NI        0.684945    0.293053    0.238649     0.004307
PD689   PD        0.708008    0.373853    0.234051     0.005394
NI690   NI        0.740949    0.351530    0.286171     0.004307
NI691   NI        0.747671    0.356249    0.229753     0.004307
NI692   NI        0.780954    0.338334    0.259448     0.004307
NI693   NI        0.041302    0.359706    0.267839     0.004307
NI694   NI        0.041752    0.392565    0.263228     0.004307
NI695   NI        0.056849    0.403319    0.259243     0.004307
PD696   PD        0.152894    0.370918    0.299275     0.005394
NI697   NI        0.091150    0.436056    0.245268     0.004307
PD698   PD        0.157439    0.391533    0.226378     0.005394
PD699   PD        0.137580    0.424081    0.252570     0.005394
PD700   PD        0.159598    0.375849    0.296267     0.005394
NI701   NI        0.222816    0.454648    0.202661     0.004307
PD702   PD        0.201910    0.388169    0.207216     0.005394
PD703   PD        0.208400    0.380019    0.290161     0.005394
PD704   PD        0.251023    0.376839    0.271872     0.005394
PD705   PD        0.255125    0.409953    0.230406     0.005394
PD706   PD        0.267567    0.394517    0.231668     0.005394
PD707   PD        0.290234    0.424561    0.263402     0.005394
PD708   PD        0.320988    0.346807    0.265266     0.005394
PD709   PD        0.302817    0.413525    0.217522     0.005394
PD710   PD        0.357640    0.379559    0.236080     0.005394
PD711   PD        0.351862    0.410277    0.264054     0.005394
PD712   PD        0.394866    0.388218    0.267816     0.005394
PD713   PD        0.379707    0.418659    0.217290     0.005394
PD714   PD        0.464742    0.345779    0.245710     0.005394
PD715   PD        0.435372    0.411859    0.275692     0.005394
PD716   PD        0.450062    0.368345    0.262444     0.005394
PD717   PD        0.461704    0.413582    0.235966     0.005394
PD718   PD        0.476600    0.409413    0.255124     0.005394
PD719   PD        0.493534    0.420282    0.272584     0.005394
PD720   PD        0.540489    0.379762    0.266670     0.005394
PD721   PD        0.531007    0.392998    0.257483     0.005394
PD722   PD        0.563969    0.374983    0.225395     0.005394
PD723   PD        0.563930    0.423741    0.270877     0.005394
PD724   PD        0.592294    0.384640    0.270750     0.005394
PD725   PD        0.580228    0.414102    0.214698     0.005394
PD726   PD        0.619305    0.391823    0.233593     0.005394
PD727   PD        0.636054    0.401905    0.275083     0.005394
PD728   PD        0.669522    0.391338    0.308441     0.005394
PD729   PD        0.646544    0.429798    0.226604     0.005394
PD730   PD        0.667260    0.398505    0.242051     0.005394
PD731   PD        0.735582    0.419971    0.241526     0.005394
PD732   PD        0.713114    0.385444    0.253747     0.005394
NI733   NI        0.709297    0.457733    0.238243     0.004307
NI734   NI        0.744802    0.386971    0.208427     0.004307
NI735   NI        0.780625    0.403825    0.317390     0.004307
NI736   NI        0.839158    0.387668    0.317122     0.004307
NI737   NI        0.040430    0.423633    0.299744     0.004307
NI738   NI        0.084492    0.481509    0.255346     0.004307
NI739   NI        0.070798    0.434819    0.251821     0.004307
NI740   NI        0.106939    0.459954    0.264613     0.004307
NI741   NI        0.127799    0.482960    0.235010     0.004307
PD742   PD        0.218211    0.445699    0.239388     0.005394
PD743   PD        0.168471    0.462045    0.253051     0.005394
NI744   NI        0.167554    0.439396    0.286021     0.004307
PD745   PD        0.204892    0.489467    0.230375     0.005394
PD746   PD        0.244268    0.438054    0.223522     0.005394
PD747   PD        0.214517    0.474242    0.264134     0.005394
PD748   PD        0.225428    0.458530    0.262179     0.005394
PD749   PD        0.245080    0.485880    0.226987     0.005394
PD750   PD        0.270059    0.447468    0.207478     0.005394
PD751   PD        0.272491    0.489342    0.241021     0.005394
PD752   PD        0.334698    0.423790    0.254839     0.005394
PD753   PD        0.320376    0.482753    0.233332     0.005394
PD754   PD        0.350008    0.445021    0.230285     0.005394
PD755   PD        0.356433    0.460819    0.222526     0.005394
PD756   PD        0.385568    0.437968    0.263834     0.005394
PD757   PD        0.367079    0.468525    0.269161     0.005394
PD758   PD        0.432779    0.447227    0.225709     0.005394
PD759   PD        0.410212    0.472970    0.251171     0.005394
PD760   PD        0.457787    0.453179    0.264824     0.005394
PD761   PD        0.462001    0.487189    0.225584     0.005394
PD762   PD        0.492165    0.449085    0.234180     0.005394
PD763   PD        0.493431    0.489464    0.261914     0.005394
PD764   PD        0.526492    0.455434    0.266367     0.005394
PD765   PD        0.551979    0.456981    0.239614     0.005394
PD766   PD        0.575453    0.456543    0.240410     0.005394
PD767   PD        0.589871    0.489621    0.224386     0.005394
PD768   PD        0.601685    0.446987    0.240296     0.005394
PD769   PD        0.616691    0.460267    0.214953     0.005394
NI770   NI        0.628902    0.452642    0.238888     0.004307
PD771   PD        0.626013    0.497513    0.271498     0.005394
PD772   PD        0.684231    0.458854    0.295455     0.005394
NI773   NI        0.647986    0.496395    0.203367     0.004307
NI774   NI        0.702804    0.451988    0.222388     0.004307
PD775   PD        0.639036    0.509207    0.275022     0.005394
NI776   NI        0.745318    0.461404    0.249332     0.004307
NI777   NI        0.736925    0.463103    0.224776     0.004307
PD778   PD        0.704207    0.421820    0.261432     0.005394
NI779   NI        0.741737    0.519229    0.308416     0.004307
NI780   NI        0.826884    0.457302    0.271161     0.004307
NI781   NI        0.042411    0.505360    0.246368     0.004307
NI782   NI        0.132358    0.563643    0.236819     0.004307
NI783   NI        0.091592    0.559311    0.282964     0.004307
NI784   NI        0.106970    0.519972    0.261038     0.004307
NI785   NI        0.134915    0.568696    0.222950     0.004307
PD786   PD        0.148635    0.523809    0.215291     0.005394
PD787   PD        0.138904    0.538481    0.260491     0.005394
PD788   PD        0.183192    0.515174    0.264956     0.005394
PD789   PD        0.178262    0.555773    0.237217     0.005394
PD790   PD        0.208820    0.535761    0.244762     0.005394
PD791   PD        0.219010    0.553428    0.268003     0.005394
PD792   PD        0.251996    0.525060    0.263653     0.005394
PD793   PD        0.252424    0.552563    0.231275     0.005394
PD794   PD        0.286985    0.508116    0.236783     0.005394
PD795   PD        0.286073    0.554750    0.247335     0.005394
PD796   PD        0.308150    0.505241    0.272721     0.005394
PD797   PD        0.317885    0.549090    0.237505     0.005394
PD798   PD        0.331878    0.496555    0.247339     0.005394
PD799   PD        0.352924    0.550446    0.269573     0.005394
PD800   PD        0.369753    0.520130    0.228080     0.005394
PD801   PD        0.387435    0.551590    0.234942     0.005394
PD802   PD        0.430852    0.526137    0.221854     0.005394
PD803   PD        0.420756    0.552151    0.269360     0.005394
PD804   PD        0.434122    0.478694    0.263576     0.005394
PD805   PD        0.447172    0.554098    0.213678     0.005394
PD806   PD        0.503907    0.501524    0.245836     0.005394
PD807   PD        0.499527    0.564866    0.269720     0.005394
PD808   PD        0.528953    0.521680    0.259065     0.005394
PD809   PD        0.529640    0.561496    0.229006     0.005394
PD810   PD        0.559658    0.520171    0.222986     0.005394
PD811   PD        0.566047    0.551856    0.257494     0.005394
PD812   PD        0.597728    0.517530    0.264648     0.005394
PD813   PD        0.575575    0.548009    0.228858     0.005394
PD814   PD        0.628745    0.519905    0.228516     0.005394
PD815   PD        0.626384    0.580680    0.262255     0.005394
PD816   PD        0.679763    0.527735    0.271687     0.005394
NI817   NI        0.659120    0.504886    0.240267     0.004307
NI818   NI        0.714667    0.516581    0.243054     0.004307
NI819   NI        0.691819    0.543813    0.227365     0.004307
NI820   NI        0.732408    0.509329    0.280336     0.004307
NI821   NI        0.769898    0.567239    0.249149     0.004307
NI822   NI        0.796920    0.511546    0.240758     0.004307
NI823   NI        0.808840    0.547479    0.271457     0.004307
NI824   NI        0.805489    0.507218    0.242379     0.004307
NI825   NI        0.093909    0.635373    0.244834     0.004307
PD826   PD        0.155646    0.580107    0.304484     0.005394
NI827   NI        0.111294    0.624237    0.236175     0.004307
PD828   PD        0.146321    0.590427    0.238163     0.005394
PD829   PD        0.203859    0.599705    0.275198     0.005394
PD830   PD        0.174997    0.562005    0.264881     0.005394
NI831   NI        0.169169    0.591213    0.227555     0.004307
PD832   PD        0.213856    0.582565    0.243225     0.005394
PD833   PD        0.216302    0.619961    0.273711     0.005394
PD834   PD        0.247287    0.590731    0.256980     0.005394
PD835   PD        0.249996    0.592501    0.208656     0.005394
PD836   PD        0.276667    0.592883    0.220295     0.005394
PD837   PD        0.261385    0.624007    0.275745     0.005394
PD838   PD        0.318655    0.586363    0.267744     0.005394
PD839   PD        0.316152    0.613644    0.239345     0.005394
PD840   PD        0.359942    0.610451    0.219731     0.005394
PD841   PD        0.376283    0.592220    0.279593     0.005394
PD842   PD        0.392087    0.546118    0.281355     0.005394
PD843   PD        0.382637    0.619118    0.233728     0.005394
PD844   PD        0.420585    0.586608    0.234730     0.005394
PD845   PD        0.419962    0.560758    0.275121     0.005394
PD846   PD        0.456079    0.585808    0.267031     0.005394
PD847   PD        0.469154    0.639118    0.235484     0.005394
PD848   PD        0.482790    0.591889    0.227758     0.005394
PD849   PD        0.489984    0.619321    0.272476     0.005394
PD850   PD        0.531755    0.595798    0.262653     0.005394
PD851   PD        0.539493    0.628430    0.229005     0.005394
PD852   PD        0.568410    0.590274    0.230720     0.005394
PD853   PD        0.557822    0.601743    0.262795     0.005394
PD854   PD        0.584204    0.598282    0.276131     0.005394
PD855   PD        0.576636    0.626983    0.200376     0.005394
NI856   NI        0.648856    0.601337    0.224597     0.004307
PD857   PD        0.640758    0.593513    0.272649     0.005394
PD858   PD        0.655644    0.576166    0.230251     0.005394
NI859   NI        0.680187    0.638082    0.231137     0.004307
PD860   PD        0.691164    0.579454    0.261085     0.005394
NI861   NI        0.682232    0.610050    0.250052     0.004307
NI862   NI        0.720406    0.632840    0.255062     0.004307
NI863   NI        0.712274    0.654980    0.213730     0.004307
NI864   NI        0.728298    0.679824    0.251468     0.004307
NI865   NI        0.124443    0.668734    0.261987     0.004307
NI866   NI        0.179281    0.636177    0.190192     0.004307
NI867   NI        0.156357    0.682218    0.274304     0.004307
NI868   NI        0.197881    0.658159    0.267893     0.004307
PD869   PD        0.220808    0.628881    0.250122     0.005394
NI870   NI        0.210019    0.664405    0.222620     0.004307
NI871   NI        0.203371    0.704570    0.279240     0.004307
PD872   PD        0.281313    0.650131    0.258630     0.005394
NI873   NI        0.233705    0.675650    0.247645     0.004307
PD874   PD        0.315767    0.661622    0.252463     0.005394
PD875   PD        0.291702    0.702271    0.260449     0.005394
PD876   PD        0.308791    0.669197    0.291360     0.005394
PD877   PD        0.332504    0.704124    0.231815     0.005394
PD878   PD        0.367215    0.646722    0.207013     0.005394
NI879   NI        0.373852    0.719078    0.279170     0.004307
PD880   PD        0.387376    0.654459    0.266453     0.005394
PD881   PD        0.371198    0.675998    0.233768     0.005394
PD882   PD        0.425565    0.658261    0.236334     0.005394
PD883   PD        0.421586    0.686216    0.256544     0.005394
PD884   PD        0.456610    0.661766    0.288792     0.005394
PD885   PD        0.464350    0.687034    0.236376     0.005394
PD886   PD        0.497554    0.653367    0.239973     0.005394
PD887   PD        0.495953    0.712957    0.263540     0.005394
PD888   PD        0.521194    0.656758    0.282086     0.005394
NI889   NI        0.535467    0.666386    0.215261     0.004307
PD890   PD        0.562025    0.659794    0.258570     0.005394
NI891   NI        0.594690    0.694318    0.265553     0.004307
NI892   NI        0.599810    0.668415    0.269111     0.004307
NI893   NI        0.612386    0.710282    0.222472     0.004307
NI894   NI        0.645173    0.614823    0.222153     0.004307
NI895   NI        0.625870    0.704812    0.285583     0.004307
PD896   PD        0.682942    0.607586    0.298851     0.005394
NI897   NI        0.621632    0.712736    0.283402     0.004307
NI898   NI        0.712462    0.607058    0.211864     0.004307
NI899   NI        0.635266    0.698390    0.262790     0.004307
NI900   NI        0.743204    0.656031    0.289827     0.004307
NI901   NI        0.199670    0.754396    0.278345     0.004307
NI902   NI        0.219819    0.725160    0.229176     0.004307
NI903   NI        0.211664    0.775130    0.251362     0.004307
NI904   NI        0.269499    0.730637    0.210178     0.004307
NI905   NI        0.229666    0.769118    0.244733     0.004307
NI906   NI        0.285790    0.741336    0.231512     0.004307
NI907   NI        0.281451    0.756780    0.275133     0.004307
NI908   NI        0.323965    0.739314    0.260749     0.004307
NI909   NI        0.310327    0.780784    0.240947     0.004307
PD910   PD        0.338263    0.704235    0.249200     0.005394
NI911   NI        0.330968    0.743110    0.250159     0.004307
NI912   NI        0.405408    0.727048    0.231316     0.004307
NI913   NI        0.384158    0.770982    0.231541     0.004307
NI914   NI        0.396712    0.750703    0.207666     0.004307
NI915   NI        0.408948    0.771837    0.302508     0.004307
NI916   NI        0.381744    0.687077    0.243844     0.004307
NI917   NI        0.451974    0.774319    0.230212     0.004307
NI918   NI        0.490544    0.725206    0.246687     0.004307
NI919   NI        0.511857    0.775571    0.267347     0.004307
PD920   PD        0.554680    0.692117    0.319813     0.005394
NI921   NI        0.542634    0.702914    0.266797     0.004307
PD922   PD        0.552514    0.676128    0.273914     0.005394
NI923   NI        0.558324    0.785501    0.272318     0.004307
PD924   PD        0.578343    0.704945    0.258285     0.005394
NI925   NI        0.581991    0.769402    0.232290     0.004307
NI926   NI        0.624827    0.713762    0.250975     0.004307
NI927   NI        0.594893    0.786557    0.275696     0.004307
NI928   NI        0.668707    0.725555    0.276402     0.004307
NI929   NI        0.247720    0.819947    0.273318     0.004307
NI930   NI        0.340501    0.787667    0.259669     0.004307
NI931   NI        0.346649    0.750127    0.236321     0.004307
NI932   NI        0.379265    0.819110    0.212111     0.004307
NI933   NI        0.392802    0.810756    0.273510     0.004307
NI934   NI        0.415989    0.805369    0.231676     0.004307
NI935   NI        0.413253    0.820795    0.280593     0.004307
NI936   NI        0.435838    0.802524    0.258176     0.004307
NI937   NI        0.515938    0.792131    0.243773     0.004307
NI938   NI        0.534335    0.784164    0.278620     0.004307
NI939   NI        0.519684    0.821005    0.258008     0.004307
NI940   NI        0.607867    0.782592    0.270028     0.004307
NI941   NI        0.271819    0.079592    0.332459     0.004307
NI942   NI        0.309293    0.057184    0.313722     0.004307
NI943   NI        0.354516    0.067659    0.343898     0.004307
NI944   NI        0.385927    0.053712    0.307411     0.004307
NI945   NI        0.410789    0.059534    0.322620     0.004307
NI946   NI        0.441398    0.080140    0.296454     0.004307
PD947   PD        0.438677    0.124767    0.387229     0.005394
NI948   NI        0.480616    0.063429    0.310639     0.004307
NI949   NI        0.606812    0.115112    0.376514     0.004307
NI950   NI        0.155312    0.127046    0.283107     0.004307
NI951   NI        0.219597    0.219315    0.351402     0.004307
NI952   NI        0.248003    0.153044    0.364849     0.004307
NI953   NI        0.261532    0.139561    0.299691     0.004307
NI954   NI        0.292441    0.103680    0.300215     0.004307
NI955   NI        0.281444    0.145722    0.331828     0.004307
NI956   NI        0.319478    0.086163    0.374434     0.004307
NI957   NI        0.314881    0.095001    0.304169     0.004307
NI958   NI        0.361873    0.097042    0.308459     0.004307
NI959   NI        0.386733    0.103152    0.396690     0.004307
NI960   NI        0.381429    0.086045    0.351410     0.004307
PD961   PD        0.387087    0.136915    0.306437     0.005394
PD962   PD        0.399274    0.100687    0.300098     0.005394
PD963   PD        0.427236    0.149189    0.345496     0.005394
NI964   NI        0.461109    0.126671    0.327526     0.004307
PD965   PD        0.436317    0.131539    0.290330     0.005394
NI966   NI        0.505215    0.089519    0.319366     0.004307
NI967   NI        0.469435    0.122713    0.323063     0.004307
NI968   NI        0.515656    0.086249    0.335436     0.004307
PD969   PD        0.508054    0.164653    0.315536     0.005394
NI970   NI        0.570146    0.121379    0.291303     0.004307
NI971   NI        0.581951    0.138596    0.333851     0.004307
NI972   NI        0.591496    0.126666    0.332574     0.004307
NI973   NI        0.592132    0.158561    0.288768     0.004307
NI974   NI        0.629390    0.143340    0.345469     0.004307
NI975   NI        0.613712    0.125949    0.277421     0.004307
NI976   NI        0.086833    0.237863    0.306079     0.004307
NI977   NI        0.125840    0.199330    0.299996     0.004307
PD978   PD        0.179376    0.226960    0.311551     0.005394
NI979   NI        0.163033    0.145633    0.327339     0.004307
NI980   NI        0.176460    0.197706    0.349158     0.004307
PD981   PD        0.233042    0.199159    0.287216     0.005394
NI982   NI        0.208341    0.195623    0.328566     0.004307
PD983   PD        0.254797    0.199102    0.331094     0.005394
NI984   NI        0.226078    0.215806    0.304713     0.004307
NI985   NI        0.331003    0.163339    0.356839     0.004307
PD986   PD        0.272555    0.212184    0.320087     0.005394
PD987   PD        0.305074    0.190968    0.348984     0.005394
PD988   PD        0.316633    0.204230    0.301400     0.005394
PD989   PD        0.337835    0.198897    0.282807     0.005394
PD990   PD        0.350751    0.200492    0.333116     0.005394
PD991   PD        0.386059    0.172948    0.339037     0.005394
PD992   PD        0.384244    0.201129    0.298224     0.005394
PD993   PD        0.418623    0.174106    0.302786     0.005394
PD994   PD        0.423326    0.196827    0.349616     0.005394
PD995   PD        0.472075    0.148547    0.332628     0.005394
PD996   PD        0.455412    0.172869    0.271461     0.005394
PD997   PD        0.479685    0.153325    0.285839     0.005394
PD998   PD        0.488864    0.204579    0.340448     0.005394
PD999   PD        0.524988    0.179026    0.332363     0.005394
PD1000   PD        0.525719    0.221318    0.291845     0.005394
NI1001   NI        0.553005    0.173099    0.301260     0.004307
PD1002   PD        0.594560    0.210197    0.362171     0.005394
PD1003   PD        0.626876    0.208692    0.397279     0.005394
NI1004   NI        0.595349    0.198143    0.292793     0.004307
NI1005   NI        0.604189    0.162692    0.306394     0.004307
PD1006   PD        0.642293    0.209703    0.350232     0.005394
NI1007   NI        0.683670    0.205333    0.326097     0.004307
NI1008   NI        0.685589    0.211748    0.279630     0.004307
NI1009   NI        0.702601    0.149743    0.334739     0.004307
NI1010   NI        0.699174    0.224483    0.323989     0.004307
NI1011   NI        0.699013    0.214671    0.258860     0.004307
NI1012   NI        0.078061    0.278005    0.335853     0.004307
NI1013   NI        0.116813    0.204372    0.322488     0.004307
PD1014   PD        0.114207    0.275876    0.303713     0.005394
NI1015   NI        0.164501    0.209322    0.318405     0.004307
NI1016   NI        0.149096    0.288397    0.333843     0.004307
NI1017   NI        0.160770    0.268625    0.332236     0.004307
NI1018   NI        0.159646    0.266120    0.291614     0.004307
PD1019   PD        0.226773    0.230386    0.307753     0.005394
PD1020   PD        0.234586    0.276524    0.320017     0.005394
PD1021   PD        0.249583    0.242598    0.349137     0.005394
PD1022   PD        0.243718    0.276409    0.301793     0.005394
PD1023   PD        0.284194    0.240570    0.303596     0.005394
PD1024   PD        0.281886    0.271750    0.332748     0.005394
PD1025   PD        0.321043    0.257844    0.357809     0.005394
PD1026   PD        0.302871    0.281011    0.267435     0.005394
PD1027   PD        0.352231    0.237579    0.299982     0.005394
PD1028   PD        0.362037    0.272250    0.344994     0.005394
PD1029   PD        0.324208    0.293351    0.329764     0.005394
PD1030   PD        0.308647    0.248948    0.313438     0.005394
PD1031   PD        0.431582    0.246325    0.306651     0.005394
PD1032   PD        0.421405    0.278229    0.339137     0.005394
PD1033   PD        0.453757    0.230667    0.334314     0.005394
PD1034   PD        0.439613    0.298643    0.331511     0.005394
PD1035   PD        0.485142    0.242291    0.296932     0.005394
PD1036   PD        0.498421    0.274098    0.329329     0.005394
PD1037   PD        0.531484    0.262570    0.331490     0.005394
PD1038   PD        0.536318    0.276850    0.301238     0.005394
PD1039   PD        0.571787    0.265966    0.303883     0.005394
PD1040   PD        0.561847    0.282927    0.337063     0.005394
PD1041   PD        0.612106    0.244409    0.330146     0.005394
PD1042   PD        0.552815    0.257567    0.291784     0.005394
NI1043   NI        0.643540    0.199998    0.303056     0.004307
PD1044   PD        0.650435    0.268945    0.351038     0.005394
PD1045   PD        0.718479    0.234866    0.338035     0.005394
PD1046   PD        0.694223    0.293775    0.284390     0.005394
NI1047   NI        0.704147    0.254048    0.260554     0.004307
PD1048   PD        0.692258    0.273216    0.327686     0.005394
NI1049   NI        0.764772    0.238198    0.345319     0.004307
NI1050   NI        0.734104    0.339089    0.252503     0.004307
NI1051   NI        0.774870    0.281384    0.335843     0.004307
NI1052   NI        0.056264    0.302321    0.325457     0.004307
NI1053   NI        0.064024    0.339635    0.285590     0.004307
NI1054   NI        0.072936    0.318789    0.363564     0.004307
NI1055   NI        0.087522    0.358637    0.324859     0.004307
NI1056   NI        0.115193    0.310455    0.337735     0.004307
NI1057   NI        0.152941    0.352188    0.318689     0.004307
PD1058   PD        0.151355    0.306718    0.305338     0.005394
PD1059   PD        0.147418    0.346980    0.340225     0.005394
PD1060   PD        0.181311    0.290662    0.367548     0.005394
PD1061   PD        0.163342    0.369991    0.307232     0.005394
PD1062   PD        0.218024    0.301321    0.292890     0.005394
PD1063   PD        0.218781    0.345625    0.336512     0.005394
PD1064   PD        0.295077    0.290244    0.339266     0.005394
PD1065   PD        0.244871    0.337054    0.297862     0.005394
PD1066   PD        0.280730    0.306418    0.298656     0.005394
PD1067   PD        0.277148    0.336286    0.335243     0.005394
PD1068   PD        0.299128    0.327981    0.337580     0.005394
PD1069   PD        0.287017    0.344701    0.270972     0.005394
PD1070   PD        0.382095    0.344287    0.305054     0.005394
PD1071   PD        0.344999    0.359321    0.328694     0.005394
PD1072   PD        0.405815    0.302027    0.337656     0.005394
PD1073   PD        0.400210    0.349452    0.300736     0.005394
PD1074   PD        0.441732    0.328218    0.293576     0.005394
PD1075   PD        0.423712    0.347508    0.339794     0.005394
PD1076   PD        0.454932    0.312392    0.338310     0.005394
PD1077   PD        0.460000    0.348395    0.305371     0.005394
PD1078   PD        0.493203    0.299014    0.287764     0.005394
PD1079   PD        0.483811    0.349923    0.332409     0.005394
PD1080   PD        0.520841    0.309848    0.351049     0.005394
PD1081   PD        0.531393    0.339112    0.293861     0.005394
PD1082   PD        0.567091    0.303015    0.293078     0.005394
PD1083   PD        0.560352    0.337139    0.345980     0.005394
PD1084   PD        0.597852    0.313475    0.329036     0.005394
PD1085   PD        0.585125    0.346118    0.299222     0.005394
PD1086   PD        0.653857    0.316965    0.265425     0.005394
PD1087   PD        0.630384    0.347621    0.334718     0.005394
NI1088   NI        0.644416    0.302705    0.327233     0.004307
PD1089   PD        0.696055    0.340880    0.267682     0.005394
NI1090   NI        0.711796    0.297023    0.279811     0.004307
PD1091   PD        0.710583    0.353328    0.339522     0.005394
NI1092   NI        0.754286    0.346017    0.331235     0.004307
NI1093   NI        0.729105    0.322700    0.296367     0.004307
NI1094   NI        0.771402    0.320991    0.300681     0.004307
NI1095   NI        0.774053    0.327460    0.348022     0.004307
NI1096   NI        0.772561    0.274948    0.384162     0.004307
NI1097   NI        0.786538    0.328988    0.328850     0.004307
NI1098   NI        0.090169    0.363467    0.353361     0.004307
NI1099   NI        0.039675    0.397922    0.245133     0.004307
NI1100   NI        0.069886    0.388027    0.291563     0.004307
NI1101   NI        0.077508    0.410209    0.324997     0.004307
PD1102   PD        0.091759    0.405738    0.329693     0.005394
NI1103   NI        0.102573    0.418285    0.284943     0.004307
NI1104   NI        0.126755    0.339922    0.302957     0.004307
PD1105   PD        0.145803    0.412861    0.319204     0.005394
PD1106   PD        0.170489    0.378700    0.343626     0.005394
PD1107   PD        0.196325    0.394182    0.304700     0.005394
PD1108   PD        0.217339    0.343133    0.271964     0.005394
PD1109   PD        0.223172    0.442383    0.346517     0.005394
PD1110   PD        0.253969    0.379495    0.337763     0.005394
PD1111   PD        0.254368    0.414308    0.303306     0.005394
PD1112   PD        0.266281    0.401981    0.298116     0.005394
PD1113   PD        0.286158    0.416976    0.339487     0.005394
PD1114   PD        0.321006    0.382504    0.337889     0.005394
PD1115   PD        0.322790    0.416735    0.303783     0.005394
PD1116   PD        0.335772    0.374969    0.346731     0.005394
PD1117   PD        0.355794    0.417455    0.339092     0.005394
PD1118   PD        0.423956    0.381098    0.373148     0.005394
PD1119   PD        0.377819    0.413799    0.304088     0.005394
PD1120   PD        0.418756    0.372287    0.300367     0.005394
PD1121   PD        0.434681    0.402068    0.335561     0.005394
PD1122   PD        0.462549    0.376984    0.343943     0.005394
PD1123   PD        0.448574    0.434313    0.313667     0.005394
PD1124   PD        0.495753    0.390853    0.308641     0.005394
PD1125   PD        0.510600    0.433897    0.328654     0.005394
PD1126   PD        0.509745    0.393524    0.354134     0.005394
PD1127   PD        0.527861    0.421365    0.305957     0.005394
PD1128   PD        0.572898    0.394109    0.297369     0.005394
PD1129   PD        0.553027    0.411309    0.338034     0.005394
PD1130   PD        0.590229    0.376761    0.339273     0.005394
PD1131   PD        0.611157    0.414189    0.317769     0.005394
PD1132   PD        0.643530    0.373416    0.294831     0.005394
PD1133   PD        0.635975    0.393021    0.341985     0.005394
PD1134   PD        0.673670    0.375605    0.356176     0.005394
PD1135   PD        0.669378    0.413378    0.299123     0.005394
PD1136   PD        0.701888    0.377259    0.299703     0.005394
PD1137   PD        0.713838    0.408579    0.308124     0.005394
PD1138   PD        0.743588    0.382874    0.323533     0.005394
PD1139   PD        0.749807    0.399911    0.282419     0.005394
PD1140   PD        0.733386    0.412210    0.289073     0.005394
NI1141   NI        0.766499    0.441640    0.300653     0.004307
NI1142   NI        0.797848    0.322451    0.341366     0.004307
NI1143   NI        0.796485    0.401338    0.310825     0.004307
NI1144   NI        0.029424    0.466862    0.316023     0.004307
NI1145   NI        0.062226    0.437549    0.257719     0.004307
NI1146   NI        0.073456    0.458199    0.294954     0.004307
NI1147   NI        0.095764    0.486938    0.313100     0.004307
PD1148   PD        0.107129    0.447088    0.327747     0.005394
PD1149   PD        0.114030    0.482075    0.307270     0.005394
PD1150   PD        0.143990    0.431316    0.274920     0.005394
PD1151   PD        0.131048    0.493624    0.337375     0.005394
PD1152   PD        0.187666    0.462316    0.339726     0.005394
PD1153   PD        0.204922    0.495851    0.304760     0.005394
PD1154   PD        0.218626    0.447657    0.303889     0.005394
PD1155   PD        0.213166    0.484798    0.326293     0.005394
PD1156   PD        0.238519    0.441411    0.357974     0.005394
PD1157   PD        0.250027    0.481289    0.296149     0.005394
PD1158   PD        0.287957    0.450717    0.304725     0.005394
PD1159   PD        0.286695    0.484290    0.339610     0.005394
PD1160   PD        0.311410    0.433893    0.342629     0.005394
PD1161   PD        0.319723    0.485899    0.308583     0.005394
PD1162   PD        0.368157    0.439463    0.297037     0.005394
PD1163   PD        0.354529    0.486812    0.340967     0.005394
PD1164   PD        0.387740    0.465030    0.346324     0.005394
PD1165   PD        0.397047    0.471686    0.294672     0.005394
PD1166   PD        0.420700    0.455107    0.293862     0.005394
PD1167   PD        0.422121    0.494601    0.328101     0.005394
PD1168   PD        0.489073    0.438571    0.290940     0.005394
PD1169   PD        0.462819    0.495432    0.300366     0.005394
PD1170   PD        0.483805    0.479609    0.266651     0.005394
PD1171   PD        0.488370    0.483196    0.338961     0.005394
PD1172   PD        0.530606    0.446574    0.343942     0.005394
PD1173   PD        0.523924    0.493489    0.297615     0.005394
PD1174   PD        0.570261    0.438139    0.318166     0.005394
PD1175   PD        0.566005    0.482480    0.332108     0.005394
PD1176   PD        0.614264    0.456503    0.344204     0.005394
PD1177   PD        0.605243    0.497070    0.306860     0.005394
PD1178   PD        0.635856    0.449984    0.299526     0.005394
PD1179   PD        0.655883    0.473708    0.325746     0.005394
PD1180   PD        0.673891    0.465421    0.342949     0.005394
PD1181   PD        0.638925    0.430018    0.313817     0.005394
PD1182   PD        0.683062    0.444328    0.300039     0.005394
PD1183   PD        0.689706    0.496961    0.300359     0.005394
NI1184   NI        0.779778    0.425441    0.357059     0.004307
PD1185   PD        0.735357    0.484865    0.290386     0.005394
NI1186   NI        0.786186    0.420289    0.308560     0.004307
NI1187   NI        0.764108    0.488727    0.339442     0.004307
NI1188   NI        0.841355    0.381196    0.304020     0.004307
NI1189   NI        0.829833    0.454007    0.280819     0.004307
NI1190   NI        0.030505    0.548694    0.313507     0.004307
NI1191   NI        0.040333    0.584249    0.320783     0.004307
NI1192   NI        0.076504    0.555340    0.328091     0.004307
NI1193   NI        0.064179    0.563151    0.359344     0.004307
NI1194   NI        0.113181    0.528881    0.311929     0.004307
PD1195   PD        0.114171    0.546486    0.301169     0.005394
PD1196   PD        0.151823    0.515022    0.301803     0.005394
PD1197   PD        0.148145    0.550375    0.341951     0.005394
PD1198   PD        0.182891    0.518392    0.339846     0.005394
PD1199   PD        0.163956    0.574794    0.279718     0.005394
PD1200   PD        0.284113    0.516410    0.236657     0.005394
PD1201   PD        0.171967    0.587452    0.348171     0.005394
PD1202   PD        0.260979    0.541723    0.334394     0.005394
PD1203   PD        0.276142    0.538490    0.315583     0.005394
PD1204   PD        0.254341    0.503432    0.306347     0.005394
PD1205   PD        0.327888    0.564836    0.357371     0.005394
PD1206   PD        0.320780    0.519019    0.339281     0.005394
PD1207   PD        0.320461    0.554493    0.305652     0.005394
PD1208   PD        0.353588    0.519960    0.307352     0.005394
PD1209   PD        0.353931    0.585755    0.321441     0.005394
PD1210   PD        0.388036    0.520701    0.341115     0.005394
PD1211   PD        0.387195    0.553980    0.304851     0.005394
PD1212   PD        0.401033    0.531213    0.307333     0.005394
PD1213   PD        0.480995    0.588895    0.308875     0.005394
PD1214   PD        0.467102    0.515207    0.330421     0.005394
PD1215   PD        0.455816    0.553156    0.304675     0.005394
PD1216   PD        0.488921    0.520267    0.308768     0.005394
PD1217   PD        0.488296    0.555810    0.341593     0.005394
PD1218   PD        0.526300    0.509646    0.327284     0.005394
PD1219   PD        0.523871    0.552886    0.309479     0.005394
PD1220   PD        0.560362    0.524790    0.298541     0.005394
PD1221   PD        0.586579    0.560680    0.335595     0.005394
PD1222   PD        0.596350    0.515352    0.328266     0.005394
PD1223   PD        0.598035    0.541548    0.321168     0.005394
PD1224   PD        0.649790    0.517868    0.307262     0.005394
PD1225   PD        0.655527    0.573625    0.337898     0.005394
PD1226   PD        0.678850    0.511338    0.346082     0.005394
PD1227   PD        0.653785    0.492702    0.333159     0.005394
PD1228   PD        0.695786    0.506788    0.300034     0.005394
NI1229   NI        0.707448    0.567750    0.339750     0.004307
NI1230   NI        0.739330    0.503633    0.352907     0.004307
NI1231   NI        0.736905    0.576857    0.321786     0.004307
NI1232   NI        0.754759    0.524838    0.310582     0.004307
NI1233   NI        0.767023    0.513654    0.315317     0.004307
NI1234   NI        0.798252    0.545979    0.317571     0.004307
NI1235   NI        0.766322    0.557502    0.294592     0.004307
NI1236   NI        0.069381    0.531315    0.288713     0.004307
NI1237   NI        0.065078    0.603064    0.331839     0.004307
NI1238   NI        0.078087    0.651260    0.372714     0.004307
NI1239   NI        0.084373    0.597466    0.311383     0.004307
NI1240   NI        0.141215    0.621972    0.358760     0.004307
NI1241   NI        0.123580    0.594314    0.298601     0.004307
NI1242   NI        0.142007    0.659315    0.319662     0.004307
PD1243   PD        0.160737    0.557888    0.344914     0.005394
PD1244   PD        0.168518    0.612590    0.306412     0.005394
PD1245   PD        0.229385    0.608440    0.336425     0.005394
PD1246   PD        0.215755    0.652802    0.371561     0.005394
PD1247   PD        0.236976    0.605353    0.352532     0.005394
PD1248   PD        0.248843    0.630463    0.288399     0.005394
PD1249   PD        0.306859    0.587314    0.313892     0.005394
PD1250   PD        0.277610    0.622233    0.329279     0.005394
PD1251   PD        0.319700    0.585881    0.339058     0.005394
PD1252   PD        0.308830    0.604519    0.311660     0.005394
PD1253   PD        0.353242    0.587718    0.301499     0.005394
PD1254   PD        0.301210    0.561961    0.350378     0.005394
PD1255   PD        0.387870    0.592357    0.334797     0.005394
PD1256   PD        0.400350    0.613103    0.292127     0.005394
PD1257   PD        0.420874    0.586040    0.302638     0.005394
PD1258   PD        0.422129    0.625543    0.332603     0.005394
PD1259   PD        0.454356    0.590044    0.335965     0.005394
PD1260   PD        0.458752    0.615884    0.303114     0.005394
PD1261   PD        0.476600    0.623047    0.320436     0.005394
PD1262   PD        0.536798    0.621841    0.341394     0.005394
PD1263   PD        0.528824    0.585851    0.344774     0.005394
PD1264   PD        0.518557    0.633949    0.298816     0.005394
PD1265   PD        0.511665    0.589786    0.317707     0.005394
PD1266   PD        0.560361    0.589318    0.315028     0.005394
PD1267   PD        0.612663    0.593785    0.346053     0.005394
PD1268   PD        0.601806    0.623820    0.310981     0.005394
PD1269   PD        0.622896    0.572145    0.345783     0.005394
PD1270   PD        0.628822    0.627265    0.346689     0.005394
PD1271   PD        0.664350    0.590259    0.337286     0.005394
PD1272   PD        0.649136    0.639419    0.304742     0.005394
PD1273   PD        0.683119    0.607346    0.299066     0.005394
PD1274   PD        0.687767    0.614509    0.376933     0.005394
NI1275   NI        0.733248    0.570432    0.355041     0.004307
NI1276   NI        0.751955    0.654416    0.284577     0.004307
NI1277   NI        0.731850    0.603054    0.360993     0.004307
NI1278   NI        0.788829    0.633166    0.348392     0.004307
NI1279   NI        0.784444    0.591796    0.324700     0.004307
NI1280   NI        0.112362    0.675579    0.327249     0.004307
NI1281   NI        0.108867    0.695550    0.330003     0.004307
NI1282   NI        0.147695    0.654655    0.304933     0.004307
NI1283   NI        0.151276    0.699098    0.344711     0.004307
PD1284   PD        0.184863    0.663952    0.335929     0.005394
PD1285   PD        0.182215    0.638057    0.296745     0.005394
NI1286   NI        0.205083    0.678665    0.310528     0.004307
PD1287   PD        0.218824    0.693837    0.394800     0.005394
PD1288   PD        0.239219    0.649513    0.330761     0.005394
NI1289   NI        0.231821    0.700357    0.275910     0.004307
PD1290   PD        0.287706    0.645942    0.340334     0.005394
NI1291   NI        0.280687    0.706240    0.340644     0.004307
PD1292   PD        0.334433    0.638454    0.333996     0.005394
PD1293   PD        0.314400    0.674752    0.312870     0.005394
PD1294   PD        0.355035    0.656637    0.297435     0.005394
PD1295   PD        0.350848    0.693162    0.332441     0.005394
PD1296   PD        0.386948    0.657813    0.333535     0.005394
PD1297   PD        0.379486    0.688950    0.299849     0.005394
PD1298   PD        0.449610    0.696846    0.293016     0.005394
PD1299   PD        0.426449    0.705801    0.335256     0.005394
PD1300   PD        0.441879    0.640512    0.327478     0.005394
PD1301   PD        0.441428    0.678446    0.298674     0.005394
PD1302   PD        0.464037    0.681577    0.284597     0.005394
PD1303   PD        0.434027    0.701822    0.337358     0.005394
PD1304   PD        0.533622    0.662570    0.349041     0.005394
PD1305   PD        0.514408    0.682362    0.324098     0.005394
PD1306   PD        0.553824    0.666968    0.296210     0.005394
PD1307   PD        0.561164    0.687037    0.337916     0.005394
PD1308   PD        0.597315    0.672166    0.315851     0.005394
PD1309   PD        0.657147    0.638518    0.274722     0.005394
PD1310   PD        0.618276    0.656942    0.279956     0.005394
NI1311   NI        0.662817    0.710570    0.347822     0.004307
PD1312   PD        0.667079    0.654546    0.359588     0.005394
NI1313   NI        0.660060    0.657249    0.260646     0.004307
NI1314   NI        0.695456    0.665415    0.278796     0.004307
NI1315   NI        0.677395    0.650330    0.320529     0.004307
PD1316   PD        0.677953    0.636626    0.337336     0.005394
NI1317   NI        0.724655    0.649889    0.330801     0.004307
NI1318   NI        0.178370    0.736685    0.303263     0.004307
NI1319   NI        0.198557    0.735391    0.381724     0.004307
NI1320   NI        0.136621    0.752937    0.281732     0.004307
NI1321   NI        0.216539    0.737534    0.274724     0.004307
NI1322   NI        0.223179    0.754521    0.345434     0.004307
NI1323   NI        0.236433    0.760461    0.331286     0.004307
NI1324   NI        0.240345    0.776118    0.291267     0.004307
NI1325   NI        0.312144    0.736715    0.288072     0.004307
PD1326   PD        0.289196    0.757151    0.398169     0.005394
PD1327   PD        0.314249    0.732802    0.333676     0.005394
NI1328   NI        0.340145    0.771605    0.242703     0.004307
NI1329   NI        0.326069    0.726820    0.274154     0.004307
NI1330   NI        0.331645    0.772598    0.356435     0.004307
PD1331   PD        0.375753    0.760756    0.338182     0.005394
NI1332   NI        0.402423    0.763105    0.264462     0.004307
PD1333   PD        0.425825    0.738355    0.299438     0.005394
PD1334   PD        0.419152    0.746949    0.342313     0.005394
PD1335   PD        0.387380    0.736277    0.330117     0.005394
NI1336   NI        0.453285    0.760986    0.309650     0.004307
NI1337   NI        0.497551    0.738728    0.305119     0.004307
NI1338   NI        0.497369    0.774458    0.330494     0.004307
PD1339   PD        0.504875    0.682010    0.317068     0.005394
NI1340   NI        0.489948    0.787986    0.298624     0.004307
NI1341   NI        0.603655    0.758049    0.316455     0.004307
NI1342   NI        0.545139    0.762690    0.333398     0.004307
NI1343   NI        0.614445    0.713378    0.331493     0.004307
NI1344   NI        0.629473    0.791948    0.311362     0.004307
NI1345   NI        0.602628    0.750653    0.305423     0.004307
NI1346   NI        0.643424    0.694716    0.349413     0.004307
NI1347   NI        0.655221    0.705430    0.329411     0.004307
NI1348   NI        0.705797    0.753687    0.284791     0.004307
NI1349   NI        0.691836    0.710538    0.297392     0.004307
NI1350   NI        0.249784    0.769290    0.372280     0.004307
NI1351   NI        0.293870    0.782040    0.356323     0.004307
NI1352   NI        0.249367    0.793505    0.352864     0.004307
NI1353   NI        0.305063    0.806773    0.333365     0.004307
NI1354   NI        0.315135    0.816946    0.287611     0.004307
NI1355   NI        0.353128    0.806656    0.301375     0.004307
NI1356   NI        0.331154    0.811973    0.349218     0.004307
NI1357   NI        0.399091    0.796025    0.359950     0.004307
NI1358   NI        0.296060    0.769369    0.309077     0.004307
NI1359   NI        0.408140    0.782135    0.309939     0.004307
NI1360   NI        0.426494    0.827721    0.337178     0.004307
PD1361   PD        0.461713    0.761341    0.357350     0.005394
NI1362   NI        0.459646    0.825922    0.291579     0.004307
NI1363   NI        0.498618    0.805014    0.297489     0.004307
NI1364   NI        0.485179    0.820400    0.333057     0.004307
NI1365   NI        0.523525    0.791514    0.335726     0.004307
NI1366   NI        0.530865    0.808153    0.342714     0.004307
NI1367   NI        0.569123    0.791647    0.319882     0.004307
NI1368   NI        0.569720    0.830695    0.326290     0.004307
NI1369   NI        0.613019    0.819397    0.345441     0.004307
NI1370   NI        0.243187    0.074494    0.341454     0.004307
NI1371   NI        0.273822    0.067188    0.401207     0.004307
NI1372   NI        0.302521    0.055620    0.418470     0.004307
NI1373   NI        0.369274    0.068562    0.415075     0.004307
NI1374   NI        0.384637    0.039779    0.413203     0.004307
PD1375   PD        0.388116    0.093991    0.347988     0.005394
NI1376   NI        0.411005    0.000714    0.375898     0.004307
NI1377   NI        0.421555    0.065285    0.419423     0.004307
NI1378   NI        0.463591    0.063141    0.396808     0.004307
PD1379   PD        0.439783    0.081197    0.410844     0.005394
NI1380   NI        0.488606    0.083504    0.415311     0.004307
NI1381   NI        0.509501    0.069700    0.376791     0.004307
NI1382   NI        0.518619    0.119981    0.361597     0.004307
NI1383   NI        0.580488    0.154134    0.389263     0.004307
NI1384   NI        0.154331    0.141303    0.400854     0.004307
NI1385   NI        0.188231    0.101850    0.382018     0.004307
NI1386   NI        0.180498    0.150677    0.371347     0.004307
NI1387   NI        0.229539    0.099949    0.404150     0.004307
NI1388   NI        0.222846    0.152137    0.371306     0.004307
NI1389   NI        0.276982    0.114212    0.424380     0.004307
NI1390   NI        0.267767    0.150434    0.376799     0.004307
NI1391   NI        0.295018    0.091377    0.385415     0.004307
NI1392   NI        0.277347    0.146701    0.411971     0.004307
NI1393   NI        0.351424    0.079320    0.373062     0.004307
PD1394   PD        0.312185    0.132659    0.366314     0.005394
PD1395   PD        0.389606    0.139134    0.372384     0.005394
PD1396   PD        0.381011    0.149385    0.409423     0.005394
PD1397   PD        0.399305    0.104985    0.404285     0.005394
PD1398   PD        0.396971    0.136554    0.365715     0.005394
PD1399   PD        0.399657    0.098531    0.394361     0.005394
PD1400   PD        0.408713    0.132840    0.426125     0.005394
PD1401   PD        0.439579    0.088133    0.417548     0.005394
PD1402   PD        0.457159    0.139966    0.367086     0.005394
PD1403   PD        0.481713    0.103013    0.400431     0.005394
PD1404   PD        0.488710    0.148708    0.402256     0.005394
NI1405   NI        0.503340    0.116447    0.371427     0.004307
PD1406   PD        0.503088    0.152210    0.366718     0.005394
NI1407   NI        0.548711    0.083187    0.353753     0.004307
NI1408   NI        0.563313    0.122593    0.412295     0.004307
NI1409   NI        0.624711    0.135172    0.382120     0.004307
NI1410   NI        0.617213    0.132271    0.411358     0.004307
NI1411   NI        0.643865    0.069472    0.365599     0.004307
NI1412   NI        0.585803    0.127528    0.381356     0.004307
NI1413   NI        0.646030    0.116262    0.438348     0.004307
NI1414   NI        0.673772    0.128660    0.380996     0.004307
NI1415   NI        0.708500    0.186813    0.389027     0.004307
NI1416   NI        0.139115    0.230455    0.422182     0.004307
NI1417   NI        0.094062    0.171040    0.441719     0.004307
NI1418   NI        0.142068    0.214173    0.375529     0.004307
NI1419   NI        0.158624    0.169248    0.383050     0.004307
NI1420   NI        0.160776    0.200328    0.418483     0.004307
NI1421   NI        0.194395    0.165604    0.415163     0.004307
NI1422   NI        0.177260    0.209187    0.366361     0.004307
NI1423   NI        0.201770    0.181392    0.371620     0.004307
NI1424   NI        0.239090    0.178688    0.403737     0.004307
NI1425   NI        0.235027    0.166588    0.403794     0.004307
NI1426   NI        0.264928    0.202316    0.324980     0.004307
NI1427   NI        0.277666    0.164726    0.377927     0.004307
PD1428   PD        0.289031    0.206816    0.414050     0.005394
PD1429   PD        0.319227    0.170674    0.404855     0.005394
PD1430   PD        0.347765    0.164036    0.363902     0.005394
PD1431   PD        0.350156    0.164253    0.373507     0.005394
PD1432   PD        0.363247    0.195737    0.376204     0.005394
NI1433   NI        0.374207    0.154500    0.402648     0.004307
PD1434   PD        0.369835    0.289502    0.368513     0.005394
PD1435   PD        0.423948    0.161644    0.395401     0.005394
PD1436   PD        0.430032    0.208218    0.395144     0.005394
PD1437   PD        0.469628    0.149950    0.402508     0.005394
PD1438   PD        0.468090    0.202677    0.368957     0.005394
PD1439   PD        0.492743    0.161773    0.360903     0.005394
PD1440   PD        0.513436    0.198544    0.383678     0.005394
PD1441   PD        0.524117    0.177227    0.398561     0.005394
PD1442   PD        0.550903    0.209367    0.359919     0.005394
PD1443   PD        0.550824    0.155808    0.363983     0.005394
PD1444   PD        0.558742    0.206267    0.402755     0.005394
NI1445   NI        0.615476    0.132057    0.364407     0.004307
PD1446   PD        0.605369    0.217348    0.377867     0.005394
PD1447   PD        0.628062    0.176733    0.364739     0.005394
NI1448   NI        0.646694    0.180965    0.408492     0.004307
NI1449   NI        0.707118    0.174979    0.427453     0.004307
PD1450   PD        0.669796    0.169248    0.354743     0.005394
NI1451   NI        0.664516    0.144205    0.360386     0.004307
NI1452   NI        0.694437    0.218274    0.337298     0.004307
NI1453   NI        0.739190    0.159791    0.364509     0.004307
NI1454   NI        0.758991    0.200859    0.368413     0.004307
NI1455   NI        0.684916    0.211289    0.402836     0.004307
NI1456   NI        0.044213    0.295075    0.371197     0.004307
NI1457   NI        0.087309    0.238082    0.371427     0.004307
NI1458   NI        0.047694    0.290123    0.424290     0.004307
NI1459   NI        0.105414    0.237490    0.398708     0.004307
PD1460   PD        0.114334    0.275378    0.365799     0.005394
NI1461   NI        0.177426    0.245380    0.374168     0.004307
PD1462   PD        0.166819    0.285922    0.428986     0.005394
NI1463   NI        0.169737    0.222537    0.414188     0.004307
PD1464   PD        0.171418    0.249183    0.391237     0.005394
NI1465   NI        0.185357    0.224531    0.357865     0.004307
PD1466   PD        0.247612    0.278683    0.409690     0.005394
PD1467   PD        0.255318    0.239727    0.406585     0.005394
PD1468   PD        0.281178    0.212883    0.368757     0.005394
PD1469   PD        0.283647    0.249797    0.362213     0.005394
PD1470   PD        0.291043    0.310219    0.382337     0.005394
PD1471   PD        0.315392    0.234102    0.399454     0.005394
PD1472   PD        0.323554    0.276136    0.375464     0.005394
PD1473   PD        0.358548    0.241211    0.381183     0.005394
PD1474   PD        0.354620    0.261974    0.410229     0.005394
PD1475   PD        0.386348    0.244030    0.404879     0.005394
PD1476   PD        0.387300    0.278152    0.372048     0.005394
PD1477   PD        0.453169    0.231204    0.385789     0.005394
PD1478   PD        0.423005    0.266414    0.402265     0.005394
PD1479   PD        0.491431    0.210885    0.402577     0.005394
PD1480   PD        0.462994    0.271826    0.362859     0.005394
PD1481   PD        0.491862    0.245261    0.366423     0.005394
PD1482   PD        0.491361    0.278636    0.402326     0.005394
PD1483   PD        0.526615    0.246239    0.403220     0.005394
PD1484   PD        0.529903    0.282569    0.389165     0.005394
PD1485   PD        0.538917    0.238304    0.372766     0.005394
PD1486   PD        0.562550    0.272756    0.421319     0.005394
PD1487   PD        0.601961    0.248712    0.413409     0.005394
PD1488   PD        0.593057    0.277176    0.361908     0.005394
PD1489   PD        0.659602    0.247315    0.330924     0.005394
PD1490   PD        0.645706    0.289752    0.393237     0.005394
PD1491   PD        0.639232    0.223241    0.411061     0.005394
PD1492   PD        0.677593    0.292263    0.381256     0.005394
NI1493   NI        0.732454    0.187810    0.404491     0.004307
PD1494   PD        0.707443    0.268793    0.411090     0.005394
NI1495   NI        0.732313    0.225860    0.401754     0.004307
PD1496   PD        0.731781    0.273546    0.358083     0.005394
NI1497   NI        0.768788    0.199362    0.372277     0.004307
NI1498   NI        0.775602    0.239957    0.389330     0.004307
NI1499   NI        0.780450    0.280869    0.359181     0.004307
NI1500   NI        0.054106    0.326725    0.391887     0.004307
NI1501   NI        0.023857    0.367897    0.360987     0.004307
NI1502   NI        0.088304    0.313627    0.361285     0.004307
NI1503   NI        0.070047    0.324634    0.399266     0.004307
NI1504   NI        0.087921    0.294268    0.403743     0.004307
PD1505   PD        0.150873    0.380530    0.372935     0.005394
NI1506   NI        0.170398    0.289053    0.391087     0.004307
PD1507   PD        0.147497    0.350862    0.409388     0.005394
PD1508   PD        0.164817    0.309994    0.421709     0.005394
NI1509   NI        0.172137    0.362382    0.330445     0.004307
PD1510   PD        0.217321    0.313926    0.374105     0.005394
PD1511   PD        0.191396    0.348401    0.430311     0.005394
PD1512   PD        0.246533    0.323504    0.400481     0.005394
PD1513   PD        0.245859    0.324223    0.369753     0.005394
PD1514   PD        0.283072    0.315115    0.378838     0.005394
PD1515   PD        0.285472    0.348795    0.407160     0.005394
PD1516   PD        0.319474    0.313984    0.407751     0.005394
PD1517   PD        0.304171    0.356925    0.378702     0.005394
PD1518   PD        0.353683    0.312686    0.374052     0.005394
PD1519   PD        0.354552    0.347052    0.408864     0.005394
PD1520   PD        0.414124    0.305119    0.421361     0.005394
PD1521   PD        0.388225    0.347200    0.373282     0.005394
PD1522   PD        0.422841    0.313027    0.373054     0.005394
PD1523   PD        0.421668    0.347650    0.406739     0.005394
PD1524   PD        0.459800    0.302780    0.399466     0.005394
PD1525   PD        0.461964    0.354977    0.387868     0.005394
PD1526   PD        0.481438    0.307880    0.355108     0.005394
PD1527   PD        0.506231    0.355039    0.399618     0.005394
PD1528   PD        0.518687    0.318269    0.396901     0.005394
PD1529   PD        0.538726    0.325548    0.380546     0.005394
PD1530   PD        0.571611    0.293168    0.363548     0.005394
PD1531   PD        0.575394    0.377019    0.435697     0.005394
PD1532   PD        0.599718    0.306375    0.399646     0.005394
PD1533   PD        0.596521    0.348009    0.375812     0.005394
PD1534   PD        0.641939    0.321553    0.395521     0.005394
PD1535   PD        0.635787    0.336042    0.398624     0.005394
PD1536   PD        0.662105    0.304540    0.399339     0.005394
PD1537   PD        0.683365    0.340746    0.377592     0.005394
PD1538   PD        0.698397    0.293992    0.368932     0.005394
PD1539   PD        0.692006    0.340306    0.374739     0.005394
NI1540   NI        0.741263    0.344910    0.399073     0.004307
PD1541   PD        0.721687    0.371547    0.381601     0.005394
NI1542   NI        0.755796    0.314213    0.365509     0.004307
NI1543   NI        0.773054    0.363801    0.429220     0.004307
NI1544   NI        0.835496    0.319300    0.397812     0.004307
NI1545   NI        0.799350    0.341482    0.373054     0.004307
NI1546   NI        0.008349    0.412109    0.429238     0.004307
NI1547   NI        0.055367    0.375583    0.396689     0.004307
NI1548   NI        0.054278    0.407681    0.386382     0.004307
NI1549   NI        0.067824    0.382387    0.365315     0.004307
NI1550   NI        0.068601    0.422344    0.407174     0.004307
PD1551   PD        0.114844    0.377141    0.406373     0.005394
NI1552   NI        0.088340    0.407540    0.398492     0.004307
PD1553   PD        0.140628    0.398928    0.333695     0.005394
PD1554   PD        0.136009    0.415618    0.401255     0.005394
PD1555   PD        0.159463    0.371115    0.366479     0.005394
PD1556   PD        0.160500    0.409325    0.378010     0.005394
PD1557   PD        0.213030    0.384284    0.358812     0.005394
PD1558   PD        0.205861    0.419615    0.384106     0.005394
PD1559   PD        0.223577    0.365292    0.396953     0.005394
PD1560   PD        0.252872    0.415207    0.372089     0.005394
PD1561   PD        0.300296    0.356615    0.390588     0.005394
PD1562   PD        0.287948    0.415079    0.406770     0.005394
PD1563   PD        0.329874    0.376116    0.413650     0.005394
PD1564   PD        0.310161    0.401832    0.376840     0.005394
PD1565   PD        0.354681    0.381853    0.372360     0.005394
PD1566   PD        0.355720    0.415826    0.407715     0.005394
PD1567   PD        0.388092    0.380702    0.408572     0.005394
PD1568   PD        0.388641    0.415248    0.373165     0.005394
PD1569   PD        0.424075    0.381713    0.373279     0.005394
PD1570   PD        0.422087    0.415398    0.407698     0.005394
PD1571   PD        0.448445    0.384145    0.424734     0.005394
PD1572   PD        0.456939    0.415965    0.374594     0.005394
PD1573   PD        0.467155    0.373503    0.358896     0.005394
PD1574   PD        0.497908    0.424727    0.401951     0.005394
PD1575   PD        0.524115    0.368511    0.391577     0.005394
PD1576   PD        0.500599    0.430248    0.379179     0.005394
PD1577   PD        0.560559    0.379397    0.372216     0.005394
PD1578   PD        0.576782    0.418559    0.409835     0.005394
PD1579   PD        0.599009    0.391294    0.396628     0.005394
PD1580   PD        0.608426    0.418396    0.357797     0.005394
PD1581   PD        0.635256    0.362188    0.379032     0.005394
PD1582   PD        0.609738    0.427578    0.365331     0.005394
PD1583   PD        0.676211    0.385277    0.391761     0.005394
PD1584   PD        0.681704    0.423854    0.363312     0.005394
PD1585   PD        0.693751    0.388172    0.376023     0.005394
PD1586   PD        0.703831    0.410454    0.417019     0.005394
PD1587   PD        0.744783    0.402348    0.427489     0.005394
NI1588   NI        0.742793    0.385126    0.371466     0.004307
NI1589   NI        0.791271    0.407183    0.436480     0.004307
PD1590   PD        0.748326    0.389235    0.417426     0.005394
NI1591   NI        0.787724    0.384198    0.392143     0.004307
NI1592   NI        0.819889    0.415444    0.391012     0.004307
NI1593   NI        0.852031    0.382739    0.445998     0.004307
NI1594   NI        0.031239    0.440146    0.356392     0.004307
NI1595   NI        0.004034    0.466525    0.402341     0.004307
NI1596   NI        0.095530    0.460197    0.366431     0.004307
NI1597   NI        0.025935    0.483174    0.361451     0.004307
PD1598   PD        0.109240    0.465203    0.370267     0.005394
PD1599   PD        0.085962    0.481693    0.406881     0.005394
PD1600   PD        0.109406    0.438656    0.409899     0.005394
NI1601   NI        0.124132    0.519052    0.341429     0.004307
PD1602   PD        0.135761    0.450355    0.370766     0.005394
PD1603   PD        0.145244    0.497626    0.382269     0.005394
PD1604   PD        0.179168    0.428914    0.417957     0.005394
PD1605   PD        0.175845    0.473010    0.355266     0.005394
PD1606   PD        0.248481    0.429815    0.402650     0.005394
PD1607   PD        0.210797    0.471099    0.423214     0.005394
PD1608   PD        0.250972    0.435739    0.383334     0.005394
PD1609   PD        0.253293    0.484410    0.372182     0.005394
PD1610   PD        0.284938    0.448988    0.375366     0.005394
PD1611   PD        0.286780    0.484904    0.408209     0.005394
PD1612   PD        0.320709    0.449842    0.408022     0.005394
PD1613   PD        0.320115    0.483728    0.373765     0.005394
PD1614   PD        0.333415    0.432041    0.403036     0.005394
PD1615   PD        0.352441    0.483175    0.408705     0.005394
PD1616   PD        0.388937    0.450015    0.407619     0.005394
PD1617   PD        0.387547    0.485063    0.375586     0.005394
PD1618   PD        0.450297    0.439569    0.361566     0.005394
PD1619   PD        0.408477    0.455959    0.410611     0.005394
PD1620   PD        0.456206    0.449214    0.409008     0.005394
PD1621   PD        0.450093    0.471477    0.366609     0.005394
PD1622   PD        0.490413    0.449225    0.373999     0.005394
PD1623   PD        0.516202    0.476607    0.377790     0.005394
PD1624   PD        0.554393    0.459723    0.396331     0.005394
PD1625   PD        0.527641    0.482824    0.378869     0.005394
PD1626   PD        0.530115    0.463731    0.333837     0.005394
PD1627   PD        0.568251    0.465370    0.413676     0.005394
PD1628   PD        0.578084    0.431531    0.412545     0.005394
PD1629   PD        0.601683    0.483146    0.365662     0.005394
PD1630   PD        0.636097    0.449912    0.365894     0.005394
PD1631   PD        0.628014    0.485750    0.408313     0.005394
PD1632   PD        0.674931    0.448558    0.402755     0.005394
PD1633   PD        0.661548    0.466602    0.373788     0.005394
PD1634   PD        0.704713    0.446603    0.365326     0.005394
PD1635   PD        0.725809    0.524877    0.387706     0.005394
NI1636   NI        0.749668    0.446106    0.410333     0.004307
PD1637   PD        0.728203    0.479694    0.372588     0.005394
PD1638   PD        0.754598    0.463616    0.379162     0.005394
NI1639   NI        0.737987    0.437029    0.393823     0.004307
NI1640   NI        0.818324    0.440921    0.431567     0.004307
NI1641   NI        0.807158    0.488073    0.356464     0.004307
NI1642   NI        0.822687    0.442325    0.377905     0.004307
NI1643   NI        0.837897    0.506938    0.361669     0.004307
NI1644   NI        0.038922    0.525237    0.404937     0.004307
NI1645   NI        0.036950    0.563072    0.399875     0.004307
PD1646   PD        0.104733    0.482311    0.360839     0.005394
NI1647   NI        0.081471    0.547979    0.406773     0.004307
PD1648   PD        0.115318    0.520846    0.409810     0.005394
PD1649   PD        0.200208    0.529779    0.340802     0.005394
NI1650   NI        0.120660    0.496720    0.380959     0.004307
PD1651   PD        0.153987    0.548402    0.409109     0.005394
PD1652   PD        0.167532    0.507594    0.412915     0.005394
PD1653   PD        0.182820    0.551561    0.377878     0.005394
PD1654   PD        0.187360    0.535851    0.378034     0.005394
PD1655   PD        0.218284    0.518438    0.375303     0.005394
PD1656   PD        0.250657    0.515196    0.410878     0.005394
PD1657   PD        0.234726    0.532110    0.371824     0.005394
PD1658   PD        0.280227    0.513914    0.368244     0.005394
PD1659   PD        0.285650    0.550901    0.410368     0.005394
PD1660   PD        0.317272    0.510350    0.425542     0.005394
PD1661   PD        0.292282    0.530381    0.390684     0.005394
PD1662   PD        0.353247    0.518420    0.374253     0.005394
PD1663   PD        0.355304    0.551148    0.410952     0.005394
PD1664   PD        0.376413    0.529469    0.387691     0.005394
PD1665   PD        0.377151    0.539881    0.378454     0.005394
PD1666   PD        0.421377    0.517368    0.372126     0.005394
PD1667   PD        0.435682    0.558348    0.425289     0.005394
PD1668   PD        0.468818    0.515665    0.412756     0.005394
PD1669   PD        0.454088    0.560599    0.373633     0.005394
PD1670   PD        0.504252    0.521729    0.362831     0.005394
PD1671   PD        0.490572    0.551409    0.408172     0.005394
PD1672   PD        0.524372    0.517705    0.410136     0.005394
PD1673   PD        0.543736    0.541747    0.386094     0.005394
PD1674   PD        0.574298    0.521362    0.379842     0.005394
PD1675   PD        0.584802    0.563853    0.400977     0.005394
PD1676   PD        0.600264    0.521826    0.392760     0.005394
PD1677   PD        0.574322    0.566924    0.356232     0.005394
PD1678   PD        0.601114    0.542351    0.412806     0.005394
PD1679   PD        0.641040    0.528682    0.389493     0.005394
PD1680   PD        0.672043    0.503047    0.413482     0.005394
PD1681   PD        0.673826    0.560999    0.374394     0.005394
PD1682   PD        0.721737    0.451141    0.409844     0.005394
PD1683   PD        0.701208    0.558145    0.414851     0.005394
NI1684   NI        0.793811    0.468413    0.403931     0.004307
NI1685   NI        0.768313    0.552669    0.344484     0.004307
PD1686   PD        0.764231    0.510105    0.364409     0.005394
NI1687   NI        0.790823    0.508915    0.375476     0.004307
NI1688   NI        0.834760    0.541731    0.395707     0.004307
NI1689   NI        0.747186    0.521711    0.356596     0.004307
NI1690   NI        0.017562    0.591872    0.373386     0.004307
NI1691   NI        0.038909    0.640026    0.348625     0.004307
NI1692   NI        0.075623    0.594376    0.395903     0.004307
NI1693   NI        0.054351    0.654334    0.415234     0.004307
PD1694   PD        0.136514    0.579698    0.381058     0.005394
NI1695   NI        0.126126    0.624679    0.385698     0.004307
NI1696   NI        0.142425    0.601020    0.345378     0.004307
NI1697   NI        0.090171    0.595259    0.384033     0.004307
NI1698   NI        0.178617    0.606960    0.429965     0.004307
PD1699   PD        0.172317    0.634259    0.393364     0.005394
PD1700   PD        0.210223    0.614889    0.342372     0.005394
PD1701   PD        0.247836    0.661089    0.377189     0.005394
PD1702   PD        0.247680    0.595585    0.424346     0.005394
PD1703   PD        0.254973    0.626075    0.373058     0.005394
PD1704   PD        0.269880    0.596698    0.342148     0.005394
PD1705   PD        0.287367    0.642508    0.448321     0.005394
PD1706   PD        0.318076    0.579531    0.403796     0.005394
PD1707   PD        0.306179    0.639520    0.383449     0.005394
PD1708   PD        0.337329    0.628031    0.379750     0.005394
PD1709   PD        0.353118    0.631510    0.400630     0.005394
PD1710   PD        0.395443    0.577922    0.404776     0.005394
PD1711   PD        0.381561    0.608448    0.371879     0.005394
PD1712   PD        0.422646    0.596515    0.369485     0.005394
PD1713   PD        0.454594    0.626574    0.410973     0.005394
PD1714   PD        0.455358    0.597881    0.403712     0.005394
PD1715   PD        0.459594    0.635694    0.370574     0.005394
PD1716   PD        0.488112    0.595038    0.369539     0.005394
PD1717   PD        0.495122    0.622619    0.403049     0.005394
PD1718   PD        0.526379    0.585792    0.409699     0.005394
PD1719   PD        0.523211    0.629748    0.364797     0.005394
PD1720   PD        0.555172    0.584706    0.368099     0.005394
PD1721   PD        0.576786    0.629016    0.413783     0.005394
PD1722   PD        0.608841    0.605170    0.400077     0.005394
PD1723   PD        0.605189    0.628428    0.374993     0.005394
PD1724   PD        0.637937    0.593023    0.369845     0.005394
PD1725   PD        0.621225    0.622221    0.398407     0.005394
PD1726   PD        0.663128    0.587759    0.410207     0.005394
PD1727   PD        0.658378    0.651165    0.365995     0.005394
PD1728   PD        0.703453    0.607219    0.408726     0.005394
PD1729   PD        0.709172    0.634274    0.372819     0.005394
NI1730   NI        0.724597    0.598771    0.427746     0.004307
NI1731   NI        0.696973    0.603170    0.367659     0.004307
NI1732   NI        0.779171    0.591990    0.370759     0.004307
NI1733   NI        0.795363    0.616096    0.390076     0.004307
NI1734   NI        0.815334    0.574219    0.396320     0.004307
NI1735   NI        0.823561    0.597461    0.352844     0.004307
NI1736   NI        0.074088    0.643224    0.384276     0.004307
NI1737   NI        0.077759    0.685756    0.405267     0.004307
NI1738   NI        0.098497    0.675196    0.408462     0.004307
NI1739   NI        0.107763    0.686561    0.359620     0.004307
PD1740   PD        0.170968    0.632113    0.368811     0.005394
NI1741   NI        0.136537    0.706915    0.390090     0.004307
PD1742   PD        0.193569    0.658359    0.414817     0.005394
PD1743   PD        0.175582    0.678887    0.379061     0.005394
PD1744   PD        0.242328    0.638804    0.334324     0.005394
PD1745   PD        0.214891    0.721299    0.432164     0.005394
PD1746   PD        0.219417    0.619246    0.404169     0.005394
PD1747   PD        0.245851    0.671446    0.389803     0.005394
PD1748   PD        0.297453    0.639444    0.387571     0.005394
PD1749   PD        0.262153    0.653689    0.418768     0.005394
PD1750   PD        0.338292    0.657733    0.415224     0.005394
PD1751   PD        0.320334    0.702659    0.368308     0.005394
PD1752   PD        0.344657    0.660177    0.366912     0.005394
PD1753   PD        0.343910    0.678414    0.446418     0.005394
PD1754   PD        0.383537    0.666420    0.395974     0.005394
PD1755   PD        0.386404    0.697754    0.359216     0.005394
PD1756   PD        0.421068    0.664593    0.363708     0.005394
PD1757   PD        0.419927    0.697963    0.400490     0.005394
PD1758   PD        0.465216    0.665049    0.407273     0.005394
PD1759   PD        0.466995    0.706622    0.387512     0.005394
PD1760   PD        0.489896    0.673869    0.364049     0.005394
PD1761   PD        0.501960    0.693921    0.411791     0.005394
PD1762   PD        0.548682    0.679065    0.403218     0.005394
PD1763   PD        0.525545    0.677831    0.398025     0.005394
PD1764   PD        0.562418    0.632206    0.368898     0.005394
PD1765   PD        0.537692    0.663943    0.372534     0.005394
PD1766   PD        0.584682    0.647421    0.406514     0.005394
PD1767   PD        0.595060    0.692630    0.394883     0.005394
PD1768   PD        0.631084    0.643979    0.388452     0.005394
PD1769   PD        0.614724    0.685764    0.407510     0.005394
PD1770   PD        0.681229    0.651625    0.406867     0.005394
NI1771   NI        0.659729    0.738580    0.371916     0.004307
NI1772   NI        0.735955    0.673781    0.368961     0.004307
NI1773   NI        0.696767    0.696747    0.392090     0.004307
NI1774   NI        0.769461    0.646667    0.442830     0.004307
NI1775   NI        0.782197    0.679092    0.418134     0.004307
NI1776   NI        0.815491    0.654855    0.370283     0.004307
NI1777   NI        0.764017    0.718428    0.383838     0.004307
NI1778   NI        0.109387    0.721264    0.405175     0.004307
NI1779   NI        0.149824    0.741116    0.386907     0.004307
NI1780   NI        0.157382    0.822757    0.378457     0.004307
NI1781   NI        0.220588    0.727165    0.427807     0.004307
NI1782   NI        0.207526    0.784038    0.380593     0.004307
NI1783   NI        0.211757    0.701638    0.387536     0.004307
NI1784   NI        0.165421    0.783291    0.405863     0.004307
NI1785   NI        0.233195    0.727945    0.388756     0.004307
NI1786   NI        0.247032    0.782745    0.372134     0.004307
NI1787   NI        0.286610    0.736836    0.371627     0.004307
NI1788   NI        0.286863    0.765119    0.402447     0.004307
PD1789   PD        0.322090    0.655082    0.416574     0.005394
NI1790   NI        0.328662    0.752231    0.369537     0.004307
PD1791   PD        0.350644    0.729286    0.362600     0.005394
NI1792   NI        0.351955    0.763139    0.401623     0.004307
PD1793   PD        0.389870    0.735981    0.390699     0.005394
NI1794   NI        0.385823    0.756620    0.372641     0.004307
PD1795   PD        0.428899    0.733177    0.374125     0.005394
PD1796   PD        0.417954    0.767439    0.392884     0.005394
PD1797   PD        0.462438    0.722923    0.406669     0.005394
PD1798   PD        0.454869    0.758137    0.374183     0.005394
PD1799   PD        0.501332    0.766754    0.371816     0.005394
NI1800   NI        0.524561    0.782990    0.410415     0.004307
PD1801   PD        0.532962    0.713817    0.413328     0.005394
PD1802   PD        0.540975    0.740307    0.374979     0.005394
PD1803   PD        0.569548    0.734818    0.336369     0.005394
NI1804   NI        0.572694    0.786040    0.401941     0.004307
PD1805   PD        0.606256    0.766307    0.431308     0.005394
NI1806   NI        0.604825    0.770186    0.339716     0.004307
PD1807   PD        0.606319    0.705495    0.328381     0.005394
PD1808   PD        0.620600    0.732700    0.401996     0.005394
NI1809   NI        0.664427    0.731431    0.420139     0.004307
NI1810   NI        0.644524    0.750710    0.326510     0.004307
NI1811   NI        0.651592    0.762513    0.418374     0.004307
NI1812   NI        0.709655    0.770331    0.409991     0.004307
NI1813   NI        0.730192    0.728275    0.406951     0.004307
NI1814   NI        0.169164    0.790448    0.468060     0.004307
NI1815   NI        0.217575    0.801247    0.387257     0.004307
NI1816   NI        0.239055    0.818820    0.393217     0.004307
NI1817   NI        0.255241    0.830123    0.381793     0.004307
PD1818   PD        0.255260    0.778831    0.371028     0.005394
NI1819   NI        0.291766    0.833586    0.412862     0.004307
NI1820   NI        0.298354    0.788977    0.321664     0.004307
NI1821   NI        0.322674    0.828946    0.375742     0.004307
NI1822   NI        0.358171    0.774906    0.378571     0.004307
NI1823   NI        0.371034    0.828928    0.385883     0.004307
NI1824   NI        0.378146    0.820121    0.426911     0.004307
NI1825   NI        0.385363    0.840221    0.366430     0.004307
NI1826   NI        0.418326    0.788539    0.360449     0.004307
PD1827   PD        0.404878    0.773490    0.373349     0.005394
PD1828   PD        0.465652    0.768350    0.404321     0.005394
NI1829   NI        0.469380    0.843289    0.373499     0.004307
PD1830   PD        0.494366    0.791631    0.372856     0.005394
NI1831   NI        0.468075    0.868672    0.468870     0.004307
NI1832   NI        0.525645    0.795394    0.410519     0.004307
NI1833   NI        0.535418    0.805288    0.405332     0.004307
NI1834   NI        0.576290    0.792937    0.354362     0.004307
NI1835   NI        0.575810    0.835293    0.407821     0.004307
NI1836   NI        0.591438    0.775935    0.385266     0.004307
NI1837   NI        0.560989    0.845722    0.325088     0.004307
NI1838   NI        0.626413    0.779411    0.381340     0.004307
NI1839   NI        0.651117    0.781893    0.389869     0.004307
NI1840   NI        0.392395    0.863974    0.408294     0.004307
NI1841   NI        0.390473    0.864539    0.357980     0.004307
NI1842   NI        0.458455    0.900523    0.432533     0.004307
NI1843   NI        0.213469    0.080552    0.445660     0.004307
NI1844   NI        0.295797    0.070596    0.483090     0.004307
NI1845   NI        0.331069    0.087958    0.436566     0.004307
NI1846   NI        0.392933    0.026508    0.426141     0.004307
NI1847   NI        0.346025    0.074512    0.464079     0.004307
NI1848   NI        0.418396    0.023075    0.467559     0.004307
NI1849   NI        0.415057    0.071471    0.418535     0.004307
NI1850   NI        0.440684    0.034633    0.427930     0.004307
NI1851   NI        0.431787    0.068961    0.461941     0.004307
NI1852   NI        0.463995    0.032944    0.455451     0.004307
NI1853   NI        0.461994    0.069566    0.424680     0.004307
NI1854   NI        0.465737    0.024287    0.465686     0.004307
NI1855   NI        0.502536    0.051043    0.459761     0.004307
NI1856   NI        0.530658    0.049794    0.499147     0.004307
NI1857   NI        0.522473    0.124689    0.468624     0.004307
NI1858   NI        0.570273    0.081549    0.427281     0.004307
NI1859   NI        0.153242    0.144893    0.496310     0.004307
NI1860   NI        0.146163    0.138644    0.472320     0.004307
NI1861   NI        0.172221    0.098305    0.464311     0.004307
NI1862   NI        0.191973    0.120111    0.426425     0.004307
PD1863   PD        0.226548    0.171130    0.499775     0.005394
NI1864   NI        0.264106    0.100410    0.503412     0.004307
NI1865   NI        0.295082    0.139762    0.472378     0.004307
NI1866   NI        0.297185    0.095489    0.455432     0.004307
PD1867   PD        0.272427    0.135362    0.469274     0.005394
NI1868   NI        0.316407    0.079745    0.491016     0.004307
PD1869   PD        0.305099    0.138787    0.435480     0.005394
PD1870   PD        0.366150    0.113346    0.427642     0.005394
NI1871   NI        0.339056    0.122851    0.462295     0.004307
NI1872   NI        0.349652    0.112770    0.471846     0.004307
PD1873   PD        0.366098    0.162352    0.453615     0.005394
PD1874   PD        0.411768    0.108369    0.444690     0.005394
PD1875   PD        0.421265    0.136867    0.508635     0.005394
NI1876   NI        0.502756    0.099203    0.462350     0.004307
PD1877   PD        0.446000    0.106104    0.409314     0.005394
PD1878   PD        0.490684    0.100241    0.448181     0.005394
PD1879   PD        0.473403    0.128418    0.483887     0.005394
NI1880   NI        0.536466    0.099536    0.496893     0.004307
PD1881   PD        0.486135    0.148592    0.447675     0.005394
NI1882   NI        0.556141    0.107493    0.432773     0.004307
NI1883   NI        0.576568    0.128314    0.503400     0.004307
NI1884   NI        0.644155    0.141581    0.505939     0.004307
NI1885   NI        0.619077    0.145495    0.411101     0.004307
NI1886   NI        0.666067    0.136596    0.411012     0.004307
PD1887   PD        0.626551    0.174795    0.473410     0.005394
NI1888   NI        0.660510    0.099094    0.492318     0.004307
NI1889   NI        0.689089    0.130809    0.426376     0.004307
NI1890   NI        0.672654    0.128982    0.475030     0.004307
NI1891   NI        0.052653    0.211838    0.491577     0.004307
NI1892   NI        0.126791    0.163488    0.522969     0.004307
NI1893   NI        0.116081    0.207662    0.435553     0.004307
NI1894   NI        0.153357    0.138188    0.448386     0.004307
NI1895   NI        0.155190    0.228620    0.443988     0.004307
NI1896   NI        0.176768    0.168342    0.462853     0.004307
NI1897   NI        0.183001    0.203032    0.490159     0.004307
NI1898   NI        0.186705    0.155276    0.474044     0.004307
PD1899   PD        0.202614    0.200334    0.475932     0.005394
NI1900   NI        0.240448    0.169259    0.472165     0.004307
PD1901   PD        0.248012    0.200097    0.436752     0.005394
PD1902   PD        0.284571    0.166771    0.437632     0.005394
PD1903   PD        0.280173    0.201137    0.471228     0.005394
PD1904   PD        0.306009    0.173078    0.473559     0.005394
PD1905   PD        0.318995    0.199562    0.442906     0.005394
PD1906   PD        0.363178    0.194193    0.463258     0.005394
PD1907   PD        0.355442    0.206178    0.471443     0.005394
PD1908   PD        0.382336    0.165341    0.498102     0.005394
PD1909   PD        0.391175    0.233750    0.416730     0.005394
NI1910   NI        0.430705    0.161139    0.426715     0.004307
PD1911   PD        0.422003    0.223717    0.468305     0.005394
NI1912   NI        0.426648    0.134827    0.555851     0.004307
PD1913   PD        0.453548    0.224707    0.433397     0.005394
PD1914   PD        0.496269    0.165996    0.438428     0.005394
PD1915   PD        0.502436    0.202804    0.478448     0.005394
PD1916   PD        0.516054    0.176030    0.474150     0.005394
PD1917   PD        0.528161    0.198813    0.437619     0.005394
PD1918   PD        0.571215    0.149797    0.416085     0.005394
PD1919   PD        0.548401    0.215101    0.467207     0.005394
NI1920   NI        0.613776    0.173346    0.485373     0.004307
PD1921   PD        0.621104    0.172721    0.449095     0.005394
NI1922   NI        0.628723    0.186225    0.440881     0.004307
PD1923   PD        0.624708    0.224038    0.515943     0.005394
NI1924   NI        0.668079    0.165079    0.451147     0.004307
NI1925   NI        0.707143    0.229671    0.479869     0.004307
NI1926   NI        0.703165    0.180993    0.442409     0.004307
NI1927   NI        0.718777    0.236262    0.482777     0.004307
NI1928   NI        0.741608    0.162750    0.459405     0.004307
NI1929   NI        0.728871    0.241966    0.446064     0.004307
NI1930   NI        0.756252    0.208561    0.467338     0.004307
NI1931   NI        0.062364    0.279353    0.441359     0.004307
NI1932   NI        0.078752    0.234965    0.456128     0.004307
NI1933   NI        0.055896    0.283312    0.520003     0.004307
NI1934   NI        0.112455    0.241701    0.468698     0.004307
NI1935   NI        0.118556    0.259055    0.450501     0.004307
NI1936   NI        0.117727    0.218487    0.426300     0.004307
PD1937   PD        0.150463    0.270507    0.469528     0.005394
NI1938   NI        0.177286    0.252164    0.504369     0.004307
PD1939   PD        0.180553    0.265106    0.432387     0.005394
PD1940   PD        0.230457    0.261773    0.441892     0.005394
PD1941   PD        0.210881    0.279420    0.482459     0.005394
NI1942   NI        0.234798    0.248422    0.509785     0.004307
PD1943   PD        0.241937    0.265964    0.430148     0.005394
PD1944   PD        0.253873    0.239491    0.466114     0.005394
PD1945   PD        0.269642    0.283494    0.465570     0.005394
PD1946   PD        0.300148    0.245206    0.465984     0.005394
PD1947   PD        0.322313    0.279016    0.441310     0.005394
PD1948   PD        0.372701    0.238608    0.449462     0.005394
PD1949   PD        0.367421    0.282163    0.507247     0.005394
PD1950   PD        0.375492    0.216635    0.457092     0.005394
PD1951   PD        0.391145    0.278115    0.439589     0.005394
PD1952   PD        0.428251    0.232219    0.436421     0.005394
PD1953   PD        0.418288    0.298986    0.486807     0.005394
PD1954   PD        0.450625    0.243339    0.476854     0.005394
PD1955   PD        0.456456    0.282794    0.432277     0.005394
PD1956   PD        0.496634    0.245638    0.437028     0.005394
PD1957   PD        0.492946    0.256939    0.484156     0.005394
PD1958   PD        0.528477    0.243103    0.487083     0.005394
PD1959   PD        0.538947    0.298825    0.454264     0.005394
PD1960   PD        0.582406    0.246833    0.455329     0.005394
PD1961   PD        0.553702    0.276321    0.475683     0.005394
PD1962   PD        0.584362    0.231601    0.432233     0.005394
PD1963   PD        0.609765    0.259182    0.403465     0.005394
NI1964   NI        0.626588    0.212546    0.419460     0.004307
PD1965   PD        0.643688    0.301801    0.489585     0.005394
NI1966   NI        0.664550    0.260613    0.444618     0.004307
PD1967   PD        0.663692    0.294910    0.445700     0.005394
NI1968   NI        0.691379    0.253386    0.453763     0.004307
PD1969   PD        0.723713    0.289310    0.452382     0.005394
NI1970   NI        0.730076    0.248362    0.461181     0.004307
NI1971   NI        0.711528    0.255120    0.439566     0.004307
NI1972   NI        0.764129    0.253793    0.427212     0.004307
NI1973   NI        0.762358    0.304933    0.505039     0.004307
NI1974   NI        0.804776    0.274774    0.461696     0.004307
NI1975   NI        0.024650    0.337736    0.489653     0.004307
NI1976   NI        0.047007    0.337858    0.480661     0.004307
NI1977   NI        0.092937    0.268019    0.490509     0.004307
NI1978   NI        0.083143    0.358996    0.472277     0.004307
NI1979   NI        0.091276    0.294801    0.488531     0.004307
PD1980   PD        0.142439    0.350291    0.432864     0.005394
NI1981   NI        0.122760    0.311878    0.455559     0.004307
PD1982   PD        0.129071    0.349361    0.487130     0.005394
PD1983   PD        0.208228    0.325147    0.491961     0.005394
PD1984   PD        0.184109    0.342490    0.442056     0.005394
PD1985   PD        0.218743    0.308134    0.438613     0.005394
PD1986   PD        0.238130    0.330025    0.496017     0.005394
PD1987   PD        0.252452    0.285678    0.510747     0.005394
PD1988   PD        0.252319    0.345751    0.442625     0.005394
PD1989   PD        0.279998    0.309572    0.427285     0.005394
PD1990   PD        0.303721    0.337483    0.486983     0.005394
PD1991   PD        0.334013    0.297187    0.489992     0.005394
PD1992   PD        0.326446    0.367951    0.454792     0.005394
PD1993   PD        0.349985    0.305478    0.431763     0.005394
PD1994   PD        0.358028    0.342625    0.478868     0.005394
PD1995   PD        0.406760    0.351667    0.473580     0.005394
PD1996   PD        0.380839    0.339935    0.435259     0.005394
PD1997   PD        0.419727    0.312649    0.421983     0.005394
PD1998   PD        0.455171    0.320182    0.507580     0.005394
PD1999   PD        0.448993    0.323474    0.457327     0.005394
PD2000   PD        0.479270    0.350654    0.433330     0.005394
PD2001   PD        0.491517    0.313191    0.435730     0.005394
PD2002   PD        0.489619    0.342758    0.478612     0.005394
PD2003   PD        0.526793    0.321954    0.478684     0.005394
PD2004   PD        0.524980    0.345475    0.443314     0.005394
PD2005   PD        0.560324    0.321713    0.423053     0.005394
PD2006   PD        0.574585    0.310023    0.482086     0.005394
PD2007   PD        0.600938    0.309889    0.468411     0.005394
PD2008   PD        0.608555    0.329778    0.455568     0.005394
PD2009   PD        0.627032    0.312973    0.440638     0.005394
PD2010   PD        0.617725    0.340929    0.501080     0.005394
PD2011   PD        0.646351    0.298205    0.468187     0.005394
PD2012   PD        0.707255    0.314275    0.412482     0.005394
NI2013   NI        0.716130    0.324302    0.422248     0.004307
PD2014   PD        0.723899    0.325712    0.483729     0.005394
NI2015   NI        0.770022    0.284008    0.462579     0.004307
PD2016   PD        0.730481    0.345853    0.440159     0.005394
NI2017   NI        0.790193    0.290770    0.443082     0.004307
NI2018   NI        0.761990    0.335590    0.472597     0.004307
NI2019   NI        0.797500    0.320517    0.474399     0.004307
NI2020   NI        0.751941    0.327692    0.457880     0.004307
NI2021   NI        0.027785    0.379834    0.467722     0.004307
NI2022   NI        0.015782    0.424726    0.474129     0.004307
NI2023   NI        0.046224    0.392976    0.452567     0.004307
NI2024   NI        0.058012    0.414245    0.433941     0.004307
PD2025   PD        0.090411    0.404890    0.439783     0.005394
NI2026   NI        0.074932    0.440444    0.470579     0.004307
PD2027   PD        0.120403    0.417827    0.474660     0.005394
PD2028   PD        0.132698    0.395908    0.416537     0.005394
PD2029   PD        0.151484    0.375900    0.438724     0.005394
NI2030   NI        0.136172    0.443631    0.488796     0.004307
PD2031   PD        0.188454    0.365614    0.439541     0.005394
PD2032   PD        0.170914    0.418826    0.436392     0.005394
PD2033   PD        0.217858    0.382380    0.441190     0.005394
PD2034   PD        0.218017    0.411692    0.478258     0.005394
PD2035   PD        0.242667    0.372822    0.463360     0.005394
PD2036   PD        0.249467    0.406621    0.458400     0.005394
PD2037   PD        0.284825    0.382884    0.441288     0.005394
PD2038   PD        0.286724    0.392944    0.466601     0.005394
PD2039   PD        0.327443    0.373412    0.464244     0.005394
PD2040   PD        0.320163    0.413867    0.441288     0.005394
PD2041   PD        0.353540    0.380665    0.442264     0.005394
PD2042   PD        0.360388    0.418279    0.493294     0.005394
PD2043   PD        0.388169    0.381815    0.476082     0.005394
PD2044   PD        0.389395    0.414017    0.442418     0.005394
PD2045   PD        0.422694    0.381297    0.441802     0.005394
PD2046   PD        0.422637    0.413924    0.476906     0.005394
PD2047   PD        0.444261    0.359437    0.514629     0.005394
PD2048   PD        0.455831    0.415363    0.444150     0.005394
PD2049   PD        0.491807    0.381507    0.443549     0.005394
PD2050   PD        0.491248    0.414927    0.478800     0.005394
PD2051   PD        0.524714    0.377851    0.478320     0.005394
PD2052   PD        0.521199    0.417966    0.462484     0.005394
PD2053   PD        0.560706    0.389830    0.444748     0.005394
PD2054   PD        0.559486    0.412617    0.481570     0.005394
PD2055   PD        0.595128    0.383142    0.478398     0.005394
PD2056   PD        0.610437    0.410799    0.440894     0.005394
PD2057   PD        0.636766    0.381184    0.470360     0.005394
PD2058   PD        0.636992    0.424671    0.490943     0.005394
PD2059   PD        0.672300    0.369551    0.479793     0.005394
PD2060   PD        0.671229    0.421220    0.423329     0.005394
PD2061   PD        0.741059    0.433248    0.529789     0.005394
NI2062   NI        0.705233    0.415853    0.500189     0.004307
NI2063   NI        0.759423    0.396580    0.463758     0.004307
PD2064   PD        0.730583    0.421634    0.447784     0.005394
NI2065   NI        0.768464    0.396124    0.462734     0.004307
NI2066   NI        0.762123    0.408159    0.482596     0.004307
NI2067   NI        0.814462    0.382659    0.470654     0.004307
NI2068   NI        0.821084    0.368696    0.438496     0.004307
NI2069   NI        0.790509    0.295042    0.379764     0.004307
NI2070   NI        0.823975    0.377983    0.485608     0.004307
NI2071   NI        0.025168    0.428662    0.426272     0.004307
NI2072   NI        0.046335    0.460100    0.483632     0.004307
NI2073   NI        0.024641    0.430102    0.426337     0.004307
NI2074   NI        0.048224    0.489882    0.436219     0.004307
NI2075   NI        0.051830    0.457589    0.452664     0.004307
NI2076   NI        0.038080    0.513685    0.486867     0.004307
NI2077   NI        0.090066    0.437501    0.476130     0.004307
PD2078   PD        0.129886    0.478938    0.423870     0.005394
PD2079   PD        0.131956    0.445869    0.438156     0.005394
PD2080   PD        0.138073    0.485296    0.465571     0.005394
PD2081   PD        0.167718    0.426147    0.484724     0.005394
PD2082   PD        0.173145    0.471966    0.440933     0.005394
PD2083   PD        0.252004    0.480587    0.443571     0.005394
PD2084   PD        0.216677    0.480887    0.476330     0.005394
PD2085   PD        0.250205    0.448654    0.480764     0.005394
PD2086   PD        0.256292    0.475656    0.437652     0.005394
PD2087   PD        0.284737    0.436956    0.449164     0.005394
PD2088   PD        0.285225    0.479566    0.475895     0.005394
PD2089   PD        0.321300    0.447582    0.477608     0.005394
PD2090   PD        0.319385    0.481859    0.443924     0.005394
PD2091   PD        0.353902    0.449388    0.442155     0.005394
PD2092   PD        0.362473    0.498780    0.441228     0.005394
PD2093   PD        0.389502    0.447832    0.476371     0.005394
PD2094   PD        0.389170    0.483597    0.442243     0.005394
PD2095   PD        0.426774    0.447954    0.442742     0.005394
PD2096   PD        0.421685    0.495031    0.467255     0.005394
PD2097   PD        0.457763    0.448892    0.478418     0.005394
PD2098   PD        0.443928    0.474165    0.437059     0.005394
PD2099   PD        0.490997    0.447780    0.443857     0.005394
PD2100   PD        0.493026    0.493513    0.484408     0.005394
PD2101   PD        0.529631    0.428200    0.528325     0.005394
PD2102   PD        0.495868    0.434729    0.426578     0.005394
PD2103   PD        0.553870    0.451660    0.457586     0.005394
PD2104   PD        0.550706    0.495254    0.477700     0.005394
PD2105   PD        0.601944    0.453517    0.489727     0.005394
PD2106   PD        0.600949    0.463245    0.441026     0.005394
PD2107   PD        0.659269    0.460191    0.466403     0.005394
PD2108   PD        0.620217    0.488397    0.476432     0.005394
PD2109   PD        0.690785    0.468572    0.442916     0.005394
PD2110   PD        0.653298    0.497135    0.448805     0.005394
PD2111   PD        0.699543    0.451083    0.445680     0.005394
PD2112   PD        0.717255    0.497239    0.477860     0.005394
PD2113   PD        0.742548    0.456723    0.474764     0.005394
PD2114   PD        0.732934    0.484679    0.435023     0.005394
NI2115   NI        0.777647    0.461521    0.443382     0.004307
NI2116   NI        0.777450    0.491155    0.481896     0.004307
NI2117   NI        0.834480    0.455594    0.504997     0.004307
NI2118   NI        0.770999    0.474800    0.484460     0.004307
NI2119   NI        0.848856    0.466455    0.453857     0.004307
NI2120   NI        0.860342    0.492122    0.488246     0.004307
NI2121   NI        0.023407    0.554058    0.411819     0.004307
NI2122   NI        0.062101    0.563602    0.488164     0.004307
NI2123   NI        0.044018    0.571547    0.451425     0.004307
NI2124   NI        0.045095    0.538993    0.451022     0.004307
NI2125   NI        0.048367    0.565538    0.495820     0.004307
NI2126   NI        0.088895    0.530911    0.473469     0.004307
PD2127   PD        0.114046    0.580340    0.424583     0.005394
PD2128   PD        0.162425    0.525629    0.417423     0.005394
PD2129   PD        0.125729    0.559560    0.464212     0.005394
PD2130   PD        0.205341    0.528373    0.491344     0.005394
PD2131   PD        0.192321    0.535731    0.424073     0.005394
PD2132   PD        0.212512    0.491606    0.428824     0.005394
PD2133   PD        0.217586    0.551607    0.477633     0.005394
PD2134   PD        0.251777    0.515916    0.477630     0.005394
PD2135   PD        0.236583    0.552502    0.416220     0.005394
PD2136   PD        0.284493    0.515849    0.443144     0.005394
PD2137   PD        0.280825    0.549880    0.469170     0.005394
PD2138   PD        0.321048    0.529729    0.485091     0.005394
PD2139   PD        0.320440    0.550487    0.443503     0.005394
PD2140   PD        0.354625    0.516122    0.444552     0.005394
PD2141   PD        0.363905    0.553450    0.480421     0.005394
PD2142   PD        0.407168    0.509588    0.464678     0.005394
PD2143   PD        0.390776    0.568143    0.442754     0.005394
PD2144   PD        0.423163    0.516192    0.446029     0.005394
PD2145   PD        0.443158    0.538429    0.471028     0.005394
PD2146   PD        0.429089    0.510205    0.509216     0.005394
PD2147   PD        0.457761    0.550632    0.443717     0.005394
PD2148   PD        0.491242    0.517110    0.443703     0.005394
PD2149   PD        0.490778    0.551569    0.478373     0.005394
PD2150   PD        0.528926    0.518652    0.467386     0.005394
PD2151   PD        0.536919    0.560132    0.438008     0.005394
PD2152   PD        0.559884    0.519111    0.444717     0.005394
PD2153   PD        0.564908    0.543805    0.472367     0.005394
PD2154   PD        0.580650    0.491804    0.504107     0.005394
PD2155   PD        0.593896    0.549967    0.430434     0.005394
PD2156   PD        0.624273    0.479853    0.429516     0.005394
PD2157   PD        0.632026    0.551531    0.471073     0.005394
PD2158   PD        0.674902    0.519188    0.484609     0.005394
PD2159   PD        0.688436    0.532835    0.444831     0.005394
PD2160   PD        0.715863    0.515126    0.432645     0.005394
PD2161   PD        0.714497    0.545692    0.480832     0.005394
NI2162   NI        0.734670    0.503151    0.467995     0.004307
PD2163   PD        0.698162    0.536641    0.399940     0.005394
NI2164   NI        0.778484    0.596081    0.467845     0.004307
NI2165   NI        0.788760    0.572787    0.490279     0.004307
NI2166   NI        0.817747    0.505575    0.503646     0.004307
NI2167   NI        0.802888    0.499606    0.437601     0.004307
NI2168   NI        0.817720    0.528568    0.441268     0.004307
NI2169   NI        0.056737    0.581871    0.541464     0.004307
NI2170   NI        0.014943    0.652985    0.442182     0.004307
NI2171   NI        0.059894    0.583251    0.413409     0.004307
NI2172   NI        0.098971    0.683863    0.484208     0.004307
NI2173   NI        0.109692    0.570552    0.458526     0.004307
NI2174   NI        0.125825    0.574755    0.432629     0.004307
PD2175   PD        0.141149    0.603961    0.424368     0.005394
NI2176   NI        0.109146    0.615994    0.468986     0.004307
PD2177   PD        0.182538    0.582488    0.492913     0.005394
PD2178   PD        0.185031    0.620154    0.437626     0.005394
PD2179   PD        0.215609    0.595811    0.460741     0.005394
PD2180   PD        0.232247    0.632803    0.449385     0.005394
PD2181   PD        0.245250    0.600277    0.480492     0.005394
PD2182   PD        0.231868    0.632371    0.449489     0.005394
PD2183   PD        0.263329    0.598984    0.454116     0.005394
PD2184   PD        0.263405    0.644967    0.455342     0.005394
PD2185   PD        0.329529    0.603595    0.482790     0.005394
PD2186   PD        0.327709    0.616141    0.437337     0.005394
PD2187   PD        0.354251    0.596211    0.431649     0.005394
PD2188   PD        0.362948    0.610115    0.503337     0.005394
PD2189   PD        0.400566    0.580679    0.498013     0.005394
PD2190   PD        0.389009    0.633117    0.433555     0.005394
PD2191   PD        0.421321    0.600290    0.438257     0.005394
PD2192   PD        0.424760    0.619716    0.478536     0.005394
PD2193   PD        0.443972    0.586064    0.476775     0.005394
PD2194   PD        0.469647    0.606304    0.440959     0.005394
PD2195   PD        0.498705    0.589341    0.436303     0.005394
PD2196   PD        0.492107    0.620225    0.473593     0.005394
PD2197   PD        0.531079    0.577884    0.474870     0.005394
PD2198   PD        0.540583    0.633679    0.411388     0.005394
PD2199   PD        0.552906    0.603605    0.445266     0.005394
PD2200   PD        0.560810    0.651163    0.450626     0.005394
PD2201   PD        0.595899    0.603689    0.467642     0.005394
PD2202   PD        0.596929    0.619941    0.439460     0.005394
PD2203   PD        0.634035    0.590613    0.442969     0.005394
PD2204   PD        0.638762    0.605014    0.489337     0.005394
PD2205   PD        0.659460    0.568566    0.511209     0.005394
NI2206   NI        0.666281    0.662122    0.415464     0.004307
NI2207   NI        0.713560    0.611329    0.452853     0.004307
NI2208   NI        0.720752    0.623461    0.489114     0.004307
NI2209   NI        0.755963    0.598033    0.464353     0.004307
NI2210   NI        0.686011    0.640535    0.401942     0.004307
NI2211   NI        0.764377    0.573946    0.439602     0.004307
NI2212   NI        0.760277    0.607356    0.510850     0.004307
NI2213   NI        0.757566    0.571971    0.476519     0.004307
NI2214   NI        0.770985    0.623119    0.427769     0.004307
NI2215   NI        0.011469    0.646766    0.435196     0.004307
NI2216   NI        0.081819    0.689846    0.451897     0.004307
NI2217   NI        0.127389    0.621415    0.441169     0.004307
NI2218   NI        0.160428    0.715076    0.451828     0.004307
NI2219   NI        0.183145    0.674417    0.463139     0.004307
NI2220   NI        0.146293    0.685082    0.472434     0.004307
PD2221   PD        0.183176    0.654616    0.474306     0.005394
PD2222   PD        0.217885    0.678785    0.452769     0.005394
PD2223   PD        0.219213    0.608419    0.473258     0.005394
PD2224   PD        0.216209    0.689219    0.479338     0.005394
PD2225   PD        0.256260    0.665479    0.474784     0.005394
PD2226   PD        0.262068    0.684499    0.432393     0.005394
PD2227   PD        0.303157    0.634490    0.434318     0.005394
PD2228   PD        0.295211    0.719369    0.498385     0.005394
PD2229   PD        0.371145    0.665039    0.462692     0.005394
PD2230   PD        0.303623    0.718221    0.431301     0.005394
PD2231   PD        0.381914    0.677886    0.418234     0.005394
PD2232   PD        0.340465    0.688843    0.490944     0.005394
PD2233   PD        0.422622    0.635659    0.477649     0.005394
PD2234   PD        0.387140    0.700185    0.434262     0.005394
PD2235   PD        0.407163    0.644249    0.442093     0.005394
PD2236   PD        0.423043    0.691940    0.434784     0.005394
PD2237   PD        0.460408    0.694487    0.485175     0.005394
PD2238   PD        0.456207    0.688289    0.438765     0.005394
PD2239   PD        0.494283    0.657736    0.444130     0.005394
PD2240   PD        0.504808    0.709160    0.487082     0.005394
PD2241   PD        0.550748    0.655896    0.475326     0.005394
PD2242   PD        0.501770    0.677324    0.410139     0.005394
PD2243   PD        0.572598    0.665447    0.445026     0.005394
PD2244   PD        0.569753    0.696348    0.458850     0.005394
PD2245   PD        0.593137    0.667375    0.486455     0.005394
PD2246   PD        0.580121    0.684470    0.440862     0.005394
PD2247   PD        0.625295    0.672834    0.449468     0.005394
NI2248   NI        0.611577    0.715939    0.467009     0.004307
PD2249   PD        0.664970    0.662523    0.473438     0.005394
PD2250   PD        0.655099    0.668214    0.428776     0.005394
NI2251   NI        0.706905    0.659167    0.445528     0.004307
NI2252   NI        0.697213    0.688335    0.478018     0.004307
NI2253   NI        0.724752    0.634718    0.455231     0.004307
NI2254   NI        0.698989    0.690172    0.430334     0.004307
NI2255   NI        0.786969    0.615236    0.471407     0.004307
NI2256   NI        0.753760    0.697192    0.504785     0.004307
NI2257   NI        0.133254    0.763387    0.485166     0.004307
NI2258   NI        0.136846    0.749972    0.433530     0.004307
NI2259   NI        0.128012    0.768967    0.476531     0.004307
NI2260   NI        0.138080    0.752959    0.471150     0.004307
NI2261   NI        0.182503    0.754266    0.440972     0.004307
NI2262   NI        0.181964    0.755872    0.422363     0.004307
NI2263   NI        0.201611    0.774839    0.520554     0.004307
PD2264   PD        0.286668    0.723257    0.474673     0.005394
NI2265   NI        0.256176    0.742897    0.445734     0.004307
NI2266   NI        0.299306    0.722547    0.445644     0.004307
NI2267   NI        0.272363    0.764449    0.452787     0.004307
PD2268   PD        0.335369    0.712647    0.496701     0.005394
PD2269   PD        0.314921    0.763853    0.430582     0.005394
PD2270   PD        0.363124    0.741354    0.428700     0.005394
PD2271   PD        0.349216    0.771948    0.463880     0.005394
PD2272   PD        0.375674    0.733058    0.468763     0.005394
PD2273   PD        0.420002    0.736732    0.426899     0.005394
PD2274   PD        0.413115    0.722565    0.469383     0.005394
PD2275   PD        0.378571    0.778778    0.453547     0.005394
PD2276   PD        0.460739    0.722018    0.469692     0.005394
PD2277   PD        0.457853    0.758775    0.438936     0.005394
PD2278   PD        0.498207    0.731902    0.442604     0.005394
PD2279   PD        0.499326    0.746441    0.457332     0.005394
PD2280   PD        0.543891    0.731453    0.457333     0.005394
PD2281   PD        0.524574    0.760129    0.413588     0.005394
NI2282   NI        0.577702    0.730832    0.451166     0.004307
NI2283   NI        0.552564    0.784685    0.486540     0.004307
NI2284   NI        0.611398    0.743909    0.491955     0.004307
PD2285   PD        0.582519    0.729291    0.431193     0.005394
PD2286   PD        0.626029    0.725002    0.449349     0.005394
NI2287   NI        0.637648    0.755035    0.452105     0.004307
PD2288   PD        0.671940    0.725101    0.467561     0.005394
NI2289   NI        0.693096    0.791709    0.444361     0.004307
NI2290   NI        0.683556    0.729549    0.426140     0.004307
NI2291   NI        0.734644    0.757691    0.513926     0.004307
NI2292   NI        0.658845    0.706756    0.456847     0.004307
NI2293   NI        0.166537    0.800170    0.472907     0.004307
NI2294   NI        0.209677    0.795096    0.493394     0.004307
NI2295   NI        0.256608    0.801528    0.478465     0.004307
NI2296   NI        0.296211    0.802278    0.450005     0.004307
PD2297   PD        0.323703    0.752414    0.476779     0.005394
NI2298   NI        0.269105    0.871314    0.484091     0.004307
NI2299   NI        0.302918    0.814993    0.483510     0.004307
NI2300   NI        0.320455    0.844357    0.449768     0.004307
NI2301   NI        0.350738    0.802563    0.430280     0.004307
NI2302   NI        0.341357    0.860079    0.488951     0.004307
NI2303   NI        0.353466    0.779681    0.449381     0.004307
NI2304   NI        0.397220    0.847284    0.453196     0.004307
NI2305   NI        0.416454    0.814849    0.395884     0.004307
NI2306   NI        0.410613    0.856760    0.457372     0.004307
NI2307   NI        0.476752    0.796377    0.508666     0.004307
NI2308   NI        0.465611    0.829466    0.441664     0.004307
NI2309   NI        0.484372    0.799020    0.439675     0.004307
NI2310   NI        0.474300    0.858912    0.478441     0.004307
NI2311   NI        0.542723    0.835953    0.483446     0.004307
NI2312   NI        0.524010    0.770181    0.435771     0.004307
NI2313   NI        0.564952    0.790637    0.438847     0.004307
NI2314   NI        0.543328    0.827641    0.467901     0.004307
NI2315   NI        0.579167    0.804523    0.482688     0.004307
NI2316   NI        0.617535    0.851511    0.424471     0.004307
NI2317   NI        0.646138    0.801554    0.442025     0.004307
NI2318   NI        0.617158    0.798217    0.487778     0.004307
NI2319   NI        0.347061    0.876754    0.425549     0.004307
NI2320   NI        0.400249    0.830327    0.496477     0.004307
NI2321   NI        0.434411    0.861507    0.428886     0.004307
NI2322   NI        0.466082    0.840744    0.457416     0.004307
NI2323   NI        0.485589    0.869415    0.423708     0.004307
NI2324   NI        0.211271    0.092904    0.461711     0.004307
NI2325   NI        0.263592    0.040880    0.607410     0.004307
NI2326   NI        0.311979    0.092900    0.502486     0.004307
NI2327   NI        0.351184    0.054984    0.545110     0.004307
NI2328   NI        0.406193    0.099787    0.534306     0.004307
NI2329   NI        0.404170    0.055179    0.463239     0.004307
NI2330   NI        0.473058    0.072142    0.574292     0.004307
NI2331   NI        0.421138    0.092954    0.488582     0.004307
NI2332   NI        0.481261    0.089770    0.530516     0.004307
NI2333   NI        0.537440    0.069754    0.458649     0.004307
NI2334   NI        0.560600    0.064210    0.520761     0.004307
NI2335   NI        0.600096    0.066490    0.549332     0.004307
NI2336   NI        0.176455    0.138813    0.517599     0.004307
NI2337   NI        0.231427    0.115925    0.538217     0.004307
NI2338   NI        0.250738    0.132707    0.546357     0.004307
NI2339   NI        0.297324    0.135558    0.551096     0.004307
NI2340   NI        0.276706    0.131271    0.537920     0.004307
NI2341   NI        0.281767    0.128155    0.489295     0.004307
PD2342   PD        0.245584    0.199475    0.547850     0.005394
NI2343   NI        0.326421    0.101256    0.536928     0.004307
NI2344   NI        0.295793    0.132588    0.528591     0.004307
NI2345   NI        0.360389    0.084441    0.507163     0.004307
NI2346   NI        0.379403    0.132114    0.570178     0.004307
NI2347   NI        0.391578    0.108931    0.525212     0.004307
PD2348   PD        0.333769    0.121068    0.471974     0.005394
NI2349   NI        0.390462    0.118831    0.486552     0.004307
PD2350   PD        0.478288    0.139129    0.528093     0.005394
NI2351   NI        0.485886    0.116047    0.556347     0.004307
NI2352   NI        0.470465    0.136251    0.531064     0.004307
PD2353   PD        0.516460    0.138085    0.498802     0.005394
NI2354   NI        0.488647    0.139337    0.544794     0.004307
NI2355   NI        0.526572    0.099575    0.543748     0.004307
PD2356   PD        0.552622    0.169671    0.502042     0.005394
PD2357   PD        0.553299    0.108827    0.504528     0.005394
PD2358   PD        0.546118    0.143202    0.537040     0.005394
NI2359   NI        0.610510    0.117042    0.531330     0.004307
NI2360   NI        0.599565    0.121613    0.507256     0.004307
NI2361   NI        0.640274    0.136218    0.475415     0.004307
PD2362   PD        0.635229    0.184255    0.524632     0.005394
NI2363   NI        0.672208    0.143807    0.507959     0.004307
NI2364   NI        0.115264    0.198800    0.489134     0.004307
NI2365   NI        0.136358    0.156082    0.478462     0.004307
NI2366   NI        0.144539    0.176078    0.521234     0.004307
NI2367   NI        0.170503    0.158654    0.539213     0.004307
NI2368   NI        0.177099    0.202367    0.499685     0.004307
PD2369   PD        0.212284    0.171483    0.510819     0.005394
PD2370   PD        0.220588    0.207339    0.531647     0.005394
PD2371   PD        0.245007    0.180194    0.543907     0.005394
PD2372   PD        0.216742    0.213244    0.521285     0.005394
PD2373   PD        0.272524    0.167605    0.505423     0.005394
NI2374   NI        0.272067    0.205944    0.582311     0.004307
NI2375   NI        0.299566    0.161982    0.566806     0.004307
PD2376   PD        0.322202    0.193328    0.516948     0.005394
PD2377   PD        0.348705    0.197194    0.518087     0.005394
PD2378   PD        0.391170    0.254102    0.535335     0.005394
NI2379   NI        0.418792    0.135681    0.561441     0.004307
PD2380   PD        0.385888    0.185011    0.490735     0.005394
PD2381   PD        0.428580    0.169244    0.500873     0.005394
PD2382   PD        0.412115    0.197598    0.559246     0.005394
PD2383   PD        0.463691    0.149431    0.528705     0.005394
PD2384   PD        0.449411    0.209124    0.511075     0.005394
PD2385   PD        0.507731    0.177382    0.521316     0.005394
PD2386   PD        0.489105    0.205178    0.557131     0.005394
PD2387   PD        0.530921    0.184530    0.555995     0.005394
PD2388   PD        0.545105    0.216671    0.497838     0.005394
PD2389   PD        0.567298    0.187027    0.530229     0.005394
PD2390   PD        0.538594    0.179423    0.557217     0.005394
NI2391   NI        0.609971    0.167084    0.577761     0.004307
PD2392   PD        0.602369    0.206071    0.499684     0.005394
NI2393   NI        0.613452    0.175968    0.519679     0.004307
NI2394   NI        0.634245    0.198494    0.534685     0.004307
NI2395   NI        0.718861    0.161140    0.535831     0.004307
PD2396   PD        0.654153    0.222418    0.499141     0.005394
NI2397   NI        0.690240    0.158416    0.551871     0.004307
NI2398   NI        0.680739    0.202153    0.566063     0.004307
NI2399   NI        0.737919    0.214176    0.511454     0.004307
NI2400   NI        0.047675    0.237546    0.532460     0.004307
NI2401   NI        0.094101    0.231406    0.518084     0.004307
NI2402   NI        0.099737    0.276113    0.531829     0.004307
NI2403   NI        0.108056    0.261509    0.577235     0.004307
PD2404   PD        0.163316    0.294587    0.508139     0.005394
PD2405   PD        0.134411    0.257445    0.513887     0.005394
PD2406   PD        0.144536    0.282452    0.552346     0.005394
NI2407   NI        0.197177    0.236992    0.562119     0.004307
PD2408   PD        0.174696    0.248728    0.478303     0.005394
PD2409   PD        0.216876    0.253253    0.521498     0.005394
PD2410   PD        0.213993    0.276581    0.536459     0.005394
PD2411   PD        0.251047    0.243862    0.533830     0.005394
PD2412   PD        0.212998    0.255416    0.506455     0.005394
PD2413   PD        0.279684    0.235733    0.504297     0.005394
PD2414   PD        0.288853    0.272640    0.535751     0.005394
PD2415   PD        0.319751    0.276431    0.514535     0.005394
PD2416   PD        0.324608    0.274345    0.506068     0.005394
PD2417   PD        0.374619    0.215638    0.458176     0.005394
PD2418   PD        0.339082    0.264991    0.564751     0.005394
PD2419   PD        0.379428    0.249574    0.543147     0.005394
PD2420   PD        0.401938    0.262911    0.536605     0.005394
PD2421   PD        0.431755    0.251025    0.509662     0.005394
PD2422   PD        0.419298    0.278083    0.545877     0.005394
PD2423   PD        0.441346    0.236043    0.549833     0.005394
PD2424   PD        0.462122    0.279512    0.527057     0.005394
PD2425   PD        0.494196    0.218809    0.510928     0.005394
PD2426   PD        0.485254    0.274829    0.546360     0.005394
PD2427   PD        0.538002    0.246619    0.533948     0.005394
PD2428   PD        0.490810    0.270104    0.488327     0.005394
PD2429   PD        0.573813    0.239198    0.500388     0.005394
PD2430   PD        0.565027    0.282038    0.549065     0.005394
PD2431   PD        0.608858    0.240941    0.534556     0.005394
PD2432   PD        0.625294    0.265940    0.535723     0.005394
PD2433   PD        0.649928    0.265317    0.522524     0.005394
PD2434   PD        0.628588    0.270974    0.565412     0.005394
PD2435   PD        0.661394    0.238769    0.543132     0.005394
PD2436   PD        0.625472    0.305760    0.533034     0.005394
PD2437   PD        0.672157    0.276777    0.571602     0.005394
NI2438   NI        0.708927    0.260085    0.546846     0.004307
NI2439   NI        0.752979    0.267591    0.558655     0.004307
NI2440   NI        0.762710    0.287747    0.481528     0.004307
NI2441   NI        0.761628    0.257243    0.514406     0.004307
NI2442   NI        0.746292    0.289876    0.548496     0.004307
NI2443   NI        0.803193    0.283713    0.508982     0.004307
NI2444   NI        0.069547    0.312971    0.527962     0.004307
NI2445   NI        0.050644    0.314511    0.475476     0.004307
NI2446   NI        0.064681    0.300601    0.505228     0.004307
PD2447   PD        0.098231    0.378068    0.500415     0.005394
NI2448   NI        0.099142    0.277048    0.540585     0.004307
NI2449   NI        0.116620    0.359669    0.532030     0.004307
PD2450   PD        0.183022    0.338022    0.506601     0.005394
PD2451   PD        0.150488    0.332052    0.552911     0.005394
PD2452   PD        0.183498    0.312512    0.546346     0.005394
PD2453   PD        0.176570    0.350187    0.516117     0.005394
PD2454   PD        0.191616    0.293601    0.522801     0.005394
PD2455   PD        0.215543    0.334582    0.536980     0.005394
PD2456   PD        0.266438    0.303287    0.552920     0.005394
PD2457   PD        0.257928    0.342397    0.498288     0.005394
PD2458   PD        0.286436    0.296858    0.510304     0.005394
PD2459   PD        0.284683    0.345313    0.546199     0.005394
PD2460   PD        0.314449    0.308860    0.550612     0.005394
PD2461   PD        0.315719    0.347873    0.497722     0.005394
PD2462   PD        0.350450    0.324987    0.524287     0.005394
PD2463   PD        0.362611    0.334312    0.527664     0.005394
PD2464   PD        0.388218    0.308333    0.548089     0.005394
PD2465   PD        0.400203    0.341614    0.498335     0.005394
PD2466   PD        0.429386    0.304613    0.505210     0.005394
PD2467   PD        0.431815    0.326179    0.549024     0.005394
PD2468   PD        0.490379    0.307327    0.581912     0.005394
PD2469   PD        0.457211    0.344307    0.511541     0.005394
PD2470   PD        0.493617    0.312272    0.518674     0.005394
PD2471   PD        0.499475    0.336218    0.561864     0.005394
PD2472   PD        0.556296    0.307901    0.526413     0.005394
PD2473   PD        0.525510    0.344896    0.514807     0.005394
PD2474   PD        0.561800    0.312816    0.510074     0.005394
PD2475   PD        0.561558    0.350371    0.547577     0.005394
PD2476   PD        0.603273    0.308931    0.535518     0.005394
PD2477   PD        0.583092    0.334986    0.535938     0.005394
PD2478   PD        0.625703    0.304756    0.509359     0.005394
PD2479   PD        0.629805    0.347124    0.546934     0.005394
PD2480   PD        0.662913    0.304427    0.562487     0.005394
PD2481   PD        0.672792    0.364817    0.534295     0.005394
PD2482   PD        0.667844    0.222424    0.507927     0.005394
PD2483   PD        0.699699    0.334076    0.560186     0.005394
NI2484   NI        0.747127    0.314686    0.564315     0.004307
NI2485   NI        0.729397    0.342985    0.530114     0.004307
NI2486   NI        0.760882    0.331169    0.503938     0.004307
NI2487   NI        0.789147    0.348480    0.571336     0.004307
NI2488   NI        0.807066    0.309478    0.548739     0.004307
NI2489   NI        0.826484    0.343528    0.517710     0.004307
NI2490   NI        0.042411    0.345658    0.547290     0.004307
NI2491   NI        0.028618    0.423327    0.509287     0.004307
NI2492   NI        0.054710    0.367449    0.518368     0.004307
NI2493   NI        0.063171    0.424861    0.573300     0.004307
PD2494   PD        0.115329    0.383603    0.544272     0.005394
PD2495   PD        0.113253    0.420782    0.517024     0.005394
PD2496   PD        0.151196    0.366629    0.516303     0.005394
PD2497   PD        0.202767    0.399828    0.466097     0.005394
PD2498   PD        0.184986    0.371280    0.544114     0.005394
PD2499   PD        0.185042    0.410267    0.511111     0.005394
PD2500   PD        0.217199    0.346971    0.475983     0.005394
PD2501   PD        0.208508    0.391016    0.564401     0.005394
PD2502   PD        0.251767    0.379900    0.546215     0.005394
PD2503   PD        0.241246    0.417087    0.518051     0.005394
PD2504   PD        0.285659    0.379788    0.511568     0.005394
PD2505   PD        0.286012    0.412388    0.545860     0.005394
PD2506   PD        0.320315    0.377838    0.546413     0.005394
PD2507   PD        0.321091    0.439161    0.523870     0.005394
PD2508   PD        0.354851    0.379440    0.512858     0.005394
PD2509   PD        0.355565    0.413671    0.546302     0.005394
PD2510   PD        0.388379    0.379762    0.547106     0.005394
PD2511   PD        0.392890    0.395627    0.520807     0.005394
PD2512   PD        0.422057    0.378868    0.511669     0.005394
PD2513   PD        0.423534    0.412641    0.546238     0.005394
PD2514   PD        0.456515    0.377265    0.547592     0.005394
PD2515   PD        0.473098    0.421090    0.523696     0.005394
PD2516   PD        0.489064    0.378009    0.511066     0.005394
PD2517   PD        0.490706    0.412362    0.547470     0.005394
PD2518   PD        0.529069    0.384973    0.538808     0.005394
PD2519   PD        0.512566    0.440037    0.516321     0.005394
PD2520   PD        0.591852    0.374597    0.480128     0.005394
PD2521   PD        0.566634    0.417343    0.534847     0.005394
PD2522   PD        0.616796    0.371882    0.522745     0.005394
PD2523   PD        0.609267    0.412182    0.511023     0.005394
PD2524   PD        0.631254    0.385548    0.517610     0.005394
PD2525   PD        0.604377    0.402819    0.556459     0.005394
PD2526   PD        0.671381    0.369222    0.545019     0.005394
PD2527   PD        0.675503    0.404137    0.511068     0.005394
PD2528   PD        0.696628    0.368479    0.504745     0.005394
NI2529   NI        0.736222    0.419540    0.535833     0.004307
PD2530   PD        0.712357    0.392620    0.533006     0.005394
NI2531   NI        0.714506    0.433546    0.510699     0.004307
NI2532   NI        0.779152    0.363117    0.492215     0.004307
NI2533   NI        0.768754    0.410073    0.560157     0.004307
NI2534   NI        0.752221    0.288510    0.597503     0.004307
NI2535   NI        0.802353    0.424740    0.526184     0.004307
NI2536   NI        0.077187    0.408886    0.528587     0.004307
NI2537   NI        0.061688    0.440571    0.557737     0.004307
NI2538   NI        0.030389    0.490561    0.519803     0.004307
NI2539   NI        0.091708    0.421652    0.534794     0.004307
NI2540   NI        0.072106    0.485497    0.541834     0.004307
NI2541   NI        0.116703    0.421346    0.569192     0.004307
NI2542   NI        0.097855    0.486751    0.520161     0.004307
PD2543   PD        0.149715    0.454008    0.517961     0.005394
PD2544   PD        0.135699    0.490292    0.548701     0.005394
PD2545   PD        0.191183    0.437299    0.540235     0.005394
PD2546   PD        0.169878    0.479546    0.537322     0.005394
PD2547   PD        0.224057    0.497682    0.509957     0.005394
PD2548   PD        0.214727    0.464481    0.542252     0.005394
PD2549   PD        0.255861    0.445223    0.474847     0.005394
PD2550   PD        0.253647    0.484133    0.512309     0.005394
PD2551   PD        0.288040    0.446806    0.510796     0.005394
PD2552   PD        0.300241    0.476014    0.591350     0.005394
PD2553   PD        0.320125    0.446598    0.545777     0.005394
PD2554   PD        0.320641    0.481026    0.511855     0.005394
PD2555   PD        0.359043    0.464584    0.508343     0.005394
PD2556   PD        0.354852    0.480606    0.546311     0.005394
PD2557   PD        0.376871    0.469568    0.556490     0.005394
PD2558   PD        0.389095    0.481136    0.512088     0.005394
PD2559   PD        0.422726    0.447185    0.512085     0.005394
PD2560   PD        0.423283    0.481043    0.546813     0.005394
PD2561   PD        0.491102    0.448065    0.513614     0.005394
PD2562   PD        0.461082    0.476823    0.489841     0.005394
PD2563   PD        0.496053    0.459527    0.518326     0.005394
PD2564   PD        0.463853    0.483304    0.574854     0.005394
PD2565   PD        0.540317    0.431207    0.548700     0.005394
PD2566   PD        0.525956    0.483855    0.513966     0.005394
PD2567   PD        0.553634    0.450540    0.491318     0.005394
PD2568   PD        0.556450    0.499373    0.543989     0.005394
PD2569   PD        0.605260    0.417026    0.535249     0.005394
PD2570   PD        0.580351    0.491583    0.503090     0.005394
PD2571   PD        0.646858    0.442241    0.509641     0.005394
PD2572   PD        0.638055    0.489444    0.555790     0.005394
NI2573   NI        0.669862    0.467417    0.523813     0.004307
PD2574   PD        0.671395    0.488404    0.521184     0.005394
NI2575   NI        0.714764    0.410058    0.518027     0.004307
NI2576   NI        0.710829    0.530789    0.579116     0.004307
NI2577   NI        0.740385    0.397173    0.524983     0.004307
PD2578   PD        0.734761    0.496727    0.504722     0.005394
NI2579   NI        0.775946    0.424790    0.500329     0.004307
NI2580   NI        0.764733    0.472730    0.547444     0.004307
NI2581   NI        0.817031    0.447272    0.542159     0.004307
NI2582   NI        0.829958    0.447295    0.552718     0.004307
NI2583   NI        0.853966    0.451167    0.512119     0.004307
NI2584   NI        0.045129    0.487679    0.524253     0.004307
NI2585   NI        0.041056    0.522291    0.513473     0.004307
NI2586   NI        0.071024    0.528278    0.517934     0.004307
NI2587   NI        0.081154    0.530851    0.573095     0.004307
NI2588   NI        0.099043    0.521433    0.555369     0.004307
NI2589   NI        0.106135    0.559730    0.506660     0.004307
PD2590   PD        0.105304    0.520334    0.534690     0.005394
NI2591   NI        0.147368    0.586503    0.552299     0.004307
PD2592   PD        0.147155    0.535146    0.551302     0.005394
PD2593   PD        0.189166    0.570774    0.483114     0.005394
PD2594   PD        0.212665    0.505234    0.498519     0.005394
PD2595   PD        0.188221    0.546309    0.540919     0.005394
PD2596   PD        0.243373    0.501539    0.534579     0.005394
PD2597   PD        0.221682    0.544282    0.525849     0.005394
PD2598   PD        0.279693    0.515008    0.538161     0.005394
PD2599   PD        0.270318    0.555625    0.547365     0.005394
PD2600   PD        0.313797    0.508783    0.563975     0.005394
PD2601   PD        0.324156    0.566993    0.516709     0.005394
PD2602   PD        0.355457    0.514959    0.511653     0.005394
PD2603   PD        0.354091    0.549199    0.548439     0.005394
PD2604   PD        0.390047    0.513504    0.546384     0.005394
PD2605   PD        0.377595    0.554816    0.529491     0.005394
PD2606   PD        0.422091    0.516815    0.511809     0.005394
PD2607   PD        0.423103    0.538014    0.487962     0.005394
PD2608   PD        0.494913    0.537354    0.553626     0.005394
PD2609   PD        0.425760    0.559603    0.531397     0.005394
PD2610   PD        0.504458    0.527210    0.507083     0.005394
PD2611   PD        0.490765    0.550627    0.547191     0.005394
PD2612   PD        0.523380    0.535661    0.547935     0.005394
PD2613   PD        0.543801    0.569838    0.521236     0.005394
PD2614   PD        0.551281    0.523276    0.526899     0.005394
PD2615   PD        0.560076    0.559827    0.553600     0.005394
PD2616   PD        0.570281    0.524311    0.553056     0.005394
PD2617   PD        0.590872    0.560030    0.509101     0.005394
PD2618   PD        0.632449    0.529003    0.508152     0.005394
PD2619   PD        0.617635    0.532585    0.544053     0.005394
PD2620   PD        0.627627    0.501051    0.510406     0.005394
PD2621   PD        0.663519    0.586503    0.479885     0.005394
NI2622   NI        0.705378    0.523238    0.513470     0.004307
PD2623   PD        0.706801    0.572047    0.504825     0.005394
PD2624   PD        0.748167    0.516472    0.546418     0.005394
PD2625   PD        0.745703    0.548293    0.517914     0.005394
NI2626   NI        0.773280    0.524781    0.506817     0.004307
NI2627   NI        0.773102    0.554910    0.557003     0.004307
NI2628   NI        0.826940    0.493966    0.548524     0.004307
NI2629   NI        0.789648    0.563566    0.513054     0.004307
NI2630   NI        0.018096    0.607276    0.611995     0.004307
NI2631   NI        0.058295    0.663787    0.462830     0.004307
NI2632   NI        0.128171    0.604930    0.511016     0.004307
NI2633   NI        0.065404    0.607723    0.598195     0.004307
NI2634   NI        0.135752    0.585374    0.568988     0.004307
NI2635   NI        0.114680    0.614330    0.502214     0.004307
NI2636   NI        0.113184    0.596565    0.538316     0.004307
NI2637   NI        0.145748    0.633819    0.545009     0.004307
PD2638   PD        0.194346    0.593050    0.543793     0.005394
NI2639   NI        0.159053    0.615160    0.517822     0.004307
PD2640   PD        0.212049    0.601887    0.507212     0.005394
PD2641   PD        0.267232    0.624560    0.536825     0.005394
PD2642   PD        0.244147    0.628164    0.496318     0.005394
PD2643   PD        0.237490    0.636036    0.508257     0.005394
PD2644   PD        0.281259    0.600183    0.514250     0.005394
PD2645   PD        0.299028    0.614350    0.556790     0.005394
PD2646   PD        0.326770    0.585797    0.528247     0.005394
PD2647   PD        0.323282    0.631351    0.520697     0.005394
PD2648   PD        0.352745    0.582958    0.514359     0.005394
PD2649   PD        0.379148    0.621734    0.547539     0.005394
PD2650   PD        0.400816    0.592418    0.546274     0.005394
PD2651   PD        0.388358    0.611470    0.502546     0.005394
PD2652   PD        0.436014    0.572892    0.517674     0.005394
PD2653   PD        0.445358    0.637995    0.542627     0.005394
PD2654   PD        0.456000    0.585121    0.547991     0.005394
PD2655   PD        0.426039    0.627697    0.524443     0.005394
PD2656   PD        0.499835    0.587264    0.507947     0.005394
PD2657   PD        0.486107    0.617687    0.555779     0.005394
PD2658   PD        0.523456    0.590730    0.558951     0.005394
PD2659   PD        0.509427    0.612432    0.515463     0.005394
PD2660   PD        0.547873    0.590572    0.517195     0.005394
PD2661   PD        0.570046    0.606393    0.540616     0.005394
PD2662   PD        0.591310    0.594242    0.542703     0.005394
PD2663   PD        0.600971    0.626171    0.509550     0.005394
PD2664   PD        0.630627    0.598175    0.513683     0.005394
NI2665   NI        0.661011    0.627441    0.567806     0.004307
PD2666   PD        0.676685    0.596566    0.532616     0.005394
PD2667   PD        0.625185    0.635711    0.482947     0.005394
NI2668   NI        0.689619    0.578354    0.542534     0.004307
PD2669   PD        0.690160    0.635070    0.548857     0.005394
NI2670   NI        0.755698    0.559121    0.523909     0.004307
NI2671   NI        0.763469    0.654755    0.525450     0.004307
NI2672   NI        0.785606    0.570628    0.519080     0.004307
NI2673   NI        0.772805    0.611025    0.544728     0.004307
NI2674   NI        0.796203    0.584382    0.532395     0.004307
NI2675   NI        0.818653    0.624639    0.548419     0.004307
NI2676   NI        0.100122    0.631107    0.545452     0.004307
NI2677   NI        0.106315    0.633693    0.583364     0.004307
NI2678   NI        0.115309    0.724439    0.462514     0.004307
NI2679   NI        0.154959    0.636178    0.485406     0.004307
NI2680   NI        0.127952    0.662558    0.538152     0.004307
PD2681   PD        0.191343    0.623488    0.577343     0.005394
NI2682   NI        0.196605    0.668263    0.538175     0.004307
PD2683   PD        0.199222    0.647220    0.495698     0.005394
NI2684   NI        0.221830    0.709737    0.545198     0.004307
PD2685   PD        0.287984    0.660973    0.558922     0.005394
PD2686   PD        0.247704    0.669579    0.538153     0.005394
PD2687   PD        0.281522    0.649209    0.514673     0.005394
NI2688   NI        0.289465    0.704443    0.556054     0.004307
PD2689   PD        0.331057    0.672463    0.544220     0.005394
PD2690   PD        0.339473    0.676184    0.520531     0.005394
PD2691   PD        0.355405    0.652084    0.507957     0.005394
PD2692   PD        0.361818    0.704815    0.551302     0.005394
PD2693   PD        0.390216    0.651596    0.539899     0.005394
PD2694   PD        0.400535    0.707204    0.513617     0.005394
PD2695   PD        0.420802    0.672360    0.507393     0.005394
PD2696   PD        0.390319    0.715325    0.550433     0.005394
PD2697   PD        0.478771    0.656503    0.534582     0.005394
PD2698   PD        0.477498    0.677557    0.524320     0.005394
PD2699   PD        0.496684    0.668928    0.491543     0.005394
PD2700   PD        0.495778    0.700260    0.562199     0.005394
PD2701   PD        0.524306    0.662172    0.552703     0.005394
PD2702   PD        0.535750    0.709758    0.522198     0.005394
PD2703   PD        0.567825    0.633262    0.515753     0.005394
NI2704   NI        0.573365    0.690000    0.544731     0.004307
NI2705   NI        0.606083    0.660523    0.563602     0.004307
PD2706   PD        0.604505    0.704811    0.513607     0.005394
PD2707   PD        0.627970    0.663938    0.520319     0.005394
NI2708   NI        0.643046    0.709009    0.543080     0.004307
NI2709   NI        0.670204    0.653250    0.547703     0.004307
NI2710   NI        0.651112    0.704123    0.526355     0.004307
NI2711   NI        0.701104    0.651540    0.505506     0.004307
NI2712   NI        0.696241    0.658623    0.507680     0.004307
NI2713   NI        0.715409    0.667405    0.552883     0.004307
NI2714   NI        0.734955    0.687698    0.505999     0.004307
NI2715   NI        0.761453    0.640483    0.506260     0.004307
NI2716   NI        0.109752    0.708088    0.532706     0.004307
NI2717   NI        0.154814    0.691176    0.546371     0.004307
NI2718   NI        0.154698    0.776868    0.512073     0.004307
NI2719   NI        0.208558    0.732510    0.495665     0.004307
NI2720   NI        0.244147    0.762493    0.536182     0.004307
NI2721   NI        0.251228    0.752985    0.559267     0.004307
NI2722   NI        0.268182    0.744358    0.550190     0.004307
NI2723   NI        0.261670    0.750630    0.513102     0.004307
NI2724   NI        0.280568    0.784268    0.533684     0.004307
NI2725   NI        0.319169    0.729191    0.510882     0.004307
PD2726   PD        0.321872    0.757608    0.511275     0.005394
PD2727   PD        0.363712    0.735000    0.500385     0.005394
PD2728   PD        0.357814    0.752385    0.544830     0.005394
PD2729   PD        0.396187    0.754129    0.575127     0.005394
PD2730   PD        0.404529    0.759993    0.498578     0.005394
PD2731   PD        0.410023    0.719603    0.508059     0.005394
PD2732   PD        0.479758    0.742845    0.572638     0.005394
NI2733   NI        0.445304    0.732487    0.539090     0.004307
NI2734   NI        0.473688    0.762394    0.541467     0.004307
PD2735   PD        0.492464    0.734257    0.525413     0.005394
NI2736   NI        0.491505    0.765758    0.561193     0.004307
PD2737   PD        0.521107    0.696073    0.520609     0.005394
NI2738   NI        0.537220    0.781280    0.477009     0.004307
NI2739   NI        0.574397    0.738658    0.519301     0.004307
NI2740   NI        0.571335    0.759164    0.544383     0.004307
NI2741   NI        0.617621    0.717321    0.534131     0.004307
NI2742   NI        0.571696    0.735512    0.531653     0.004307
NI2743   NI        0.591130    0.688598    0.503363     0.004307
NI2744   NI        0.611934    0.783197    0.542452     0.004307
NI2745   NI        0.656668    0.698850    0.551286     0.004307
NI2746   NI        0.689564    0.703422    0.557532     0.004307
NI2747   NI        0.716838    0.731140    0.484820     0.004307
NI2748   NI        0.208264    0.781422    0.491268     0.004307
NI2749   NI        0.229449    0.788757    0.517217     0.004307
NI2750   NI        0.281892    0.819742    0.467212     0.004307
NI2751   NI        0.324292    0.776533    0.519731     0.004307
NI2752   NI        0.309506    0.817678    0.530110     0.004307
NI2753   NI        0.326933    0.797155    0.541978     0.004307
NI2754   NI        0.279396    0.802520    0.495379     0.004307
NI2755   NI        0.363444    0.781198    0.508197     0.004307
NI2756   NI        0.394288    0.828898    0.544512     0.004307
NI2757   NI        0.419714    0.797124    0.568506     0.004307
PD2758   PD        0.353050    0.787902    0.441730     0.005394
NI2759   NI        0.427320    0.803075    0.519251     0.004307
NI2760   NI        0.433221    0.811701    0.565542     0.004307
NI2761   NI        0.453067    0.796969    0.565390     0.004307
NI2762   NI        0.464222    0.853155    0.503125     0.004307
PD2763   PD        0.491680    0.773722    0.497172     0.005394
NI2764   NI        0.506887    0.784917    0.504538     0.004307
NI2765   NI        0.578699    0.805802    0.553958     0.004307
NI2766   NI        0.524255    0.803709    0.514380     0.004307
NI2767   NI        0.512947    0.786410    0.517451     0.004307
NI2768   NI        0.561446    0.809058    0.561383     0.004307
NI2769   NI        0.579938    0.794299    0.601656     0.004307
NI2770   NI        0.562308    0.861794    0.517948     0.004307
NI2771   NI        0.636457    0.784751    0.507442     0.004307
NI2772   NI        0.387198    0.873938    0.532094     0.004307
NI2773   NI        0.342208    0.126722    0.600186     0.004307
NI2774   NI        0.377111    0.121512    0.568664     0.004307
NI2775   NI        0.371755    0.048776    0.585789     0.004307
NI2776   NI        0.425549    0.047723    0.648995     0.004307
NI2777   NI        0.461814    0.077691    0.584486     0.004307
NI2778   NI        0.475404    0.052945    0.624560     0.004307
NI2779   NI        0.484223    0.063198    0.490188     0.004307
NI2780   NI        0.154583    0.145535    0.557321     0.004307
NI2781   NI        0.198068    0.124430    0.612046     0.004307
NI2782   NI        0.280593    0.085196    0.577743     0.004307
NI2783   NI        0.222620    0.087831    0.632865     0.004307
NI2784   NI        0.288737    0.131530    0.577645     0.004307
NI2785   NI        0.293623    0.125634    0.597767     0.004307
NI2786   NI        0.302082    0.109722    0.580334     0.004307
NI2787   NI        0.328682    0.166715    0.607626     0.004307
NI2788   NI        0.348164    0.082211    0.590817     0.004307
NI2789   NI        0.380591    0.125558    0.625465     0.004307
NI2790   NI        0.399746    0.083749    0.639696     0.004307
PD2791   PD        0.432834    0.190642    0.623981     0.005394
NI2792   NI        0.429047    0.090314    0.576203     0.004307
NI2793   NI        0.411729    0.161004    0.593885     0.004307
NI2794   NI        0.448487    0.110089    0.616091     0.004307
PD2795   PD        0.487778    0.114789    0.570635     0.005394
NI2796   NI        0.493554    0.092856    0.614459     0.004307
PD2797   PD        0.488288    0.137243    0.609380     0.005394
NI2798   NI        0.535336    0.129800    0.618081     0.004307
NI2799   NI        0.550466    0.140992    0.582314     0.004307
NI2800   NI        0.568517    0.139079    0.580680     0.004307
NI2801   NI        0.546354    0.135303    0.623496     0.004307
NI2802   NI        0.632214    0.146091    0.629566     0.004307
NI2803   NI        0.568525    0.102185    0.550488     0.004307
NI2804   NI        0.678283    0.154728    0.635397     0.004307
NI2805   NI        0.689327    0.118924    0.601616     0.004307
NI2806   NI        0.082315    0.303197    0.576145     0.004307
NI2807   NI        0.215502    0.171363    0.566392     0.004307
NI2808   NI        0.125240    0.172097    0.606581     0.004307
NI2809   NI        0.206936    0.168239    0.618466     0.004307
PD2810   PD        0.184154    0.261753    0.612175     0.005394
NI2811   NI        0.172010    0.223428    0.584035     0.004307
NI2812   NI        0.207837    0.189494    0.575236     0.004307
NI2813   NI        0.255475    0.144770    0.637622     0.004307
NI2814   NI        0.199684    0.190393    0.556874     0.004307
NI2815   NI        0.288156    0.169847    0.611097     0.004307
NI2816   NI        0.298455    0.223537    0.619693     0.004307
NI2817   NI        0.312660    0.178575    0.623694     0.004307
PD2818   PD        0.314950    0.206693    0.596022     0.005394
PD2819   PD        0.367939    0.163116    0.582164     0.005394
PD2820   PD        0.350073    0.206627    0.624530     0.005394
PD2821   PD        0.412028    0.185012    0.580615     0.005394
PD2822   PD        0.407442    0.245524    0.549803     0.005394
PD2823   PD        0.454785    0.190017    0.557476     0.005394
PD2824   PD        0.421475    0.218976    0.550029     0.005394
PD2825   PD        0.454426    0.205725    0.584687     0.005394
PD2826   PD        0.455326    0.238660    0.551686     0.005394
PD2827   PD        0.488386    0.162221    0.567908     0.005394
PD2828   PD        0.521305    0.217672    0.593095     0.005394
PD2829   PD        0.529597    0.176973    0.604014     0.005394
PD2830   PD        0.515449    0.216673    0.580028     0.005394
NI2831   NI        0.567696    0.207145    0.602957     0.004307
PD2832   PD        0.605076    0.211799    0.596158     0.005394
PD2833   PD        0.567061    0.185748    0.583673     0.005394
PD2834   PD        0.587507    0.254672    0.582880     0.005394
NI2835   NI        0.628165    0.163524    0.555988     0.004307
NI2836   NI        0.653732    0.209522    0.602316     0.004307
NI2837   NI        0.683850    0.161749    0.625065     0.004307
NI2838   NI        0.686786    0.200892    0.599002     0.004307
NI2839   NI        0.694074    0.158319    0.577387     0.004307
NI2840   NI        0.698192    0.205376    0.609520     0.004307
NI2841   NI        0.728993    0.203961    0.570599     0.004307
NI2842   NI        0.108717    0.274471    0.625419     0.004307
NI2843   NI        0.111072    0.212546    0.581001     0.004307
NI2844   NI        0.102496    0.286525    0.535107     0.004307
NI2845   NI        0.128862    0.228852    0.591191     0.004307
NI2846   NI        0.178760    0.243011    0.657117     0.004307
NI2847   NI        0.193379    0.219018    0.626733     0.004307
PD2848   PD        0.217675    0.273458    0.586141     0.005394
PD2849   PD        0.214445    0.235578    0.564599     0.005394
NI2850   NI        0.226152    0.236703    0.643026     0.004307
NI2851   NI        0.227959    0.246881    0.611843     0.004307
PD2852   PD        0.256963    0.273208    0.572653     0.005394
PD2853   PD        0.296140    0.244896    0.574791     0.005394
PD2854   PD        0.268548    0.289637    0.576936     0.005394
PD2855   PD        0.342190    0.287946    0.570362     0.005394
PD2856   PD        0.345169    0.286055    0.598097     0.005394
PD2857   PD        0.350060    0.241647    0.581611     0.005394
PD2858   PD        0.353740    0.250595    0.628147     0.005394
PD2859   PD        0.378957    0.252384    0.612307     0.005394
PD2860   PD        0.386655    0.275614    0.581350     0.005394
PD2861   PD        0.412993    0.241892    0.578108     0.005394
PD2862   PD        0.419311    0.274993    0.615125     0.005394
PD2863   PD        0.444828    0.242993    0.665874     0.005394
PD2864   PD        0.473424    0.286497    0.571449     0.005394
PD2865   PD        0.476256    0.234032    0.594345     0.005394
PD2866   PD        0.507815    0.263182    0.611966     0.005394
PD2867   PD        0.536251    0.287502    0.603669     0.005394
PD2868   PD        0.510529    0.263083    0.580372     0.005394
PD2869   PD        0.561102    0.221039    0.567713     0.005394
PD2870   PD        0.572770    0.275288    0.632143     0.005394
PD2871   PD        0.559492    0.210233    0.623996     0.005394
PD2872   PD        0.616557    0.277574    0.611363     0.005394
PD2873   PD        0.633991    0.247579    0.580371     0.005394
NI2874   NI        0.637162    0.316684    0.614847     0.004307
NI2875   NI        0.695849    0.270598    0.612528     0.004307
NI2876   NI        0.710386    0.278284    0.577048     0.004307
NI2877   NI        0.681457    0.243895    0.574150     0.004307
NI2878   NI        0.698651    0.319283    0.606156     0.004307
NI2879   NI        0.723658    0.231827    0.607119     0.004307
PD2880   PD        0.659172    0.269936    0.504479     0.005394
NI2881   NI        0.783575    0.295086    0.632738     0.004307
NI2882   NI        0.020147    0.298543    0.549726     0.004307
NI2883   NI        0.069811    0.287233    0.570366     0.004307
NI2884   NI        0.078411    0.321713    0.646637     0.004307
NI2885   NI        0.109271    0.320989    0.611265     0.004307
NI2886   NI        0.105011    0.340989    0.597356     0.004307
PD2887   PD        0.146808    0.317789    0.586049     0.005394
PD2888   PD        0.147179    0.350220    0.619243     0.005394
NI2889   NI        0.186001    0.301251    0.636888     0.004307
NI2890   NI        0.157204    0.370969    0.601727     0.004307
PD2891   PD        0.214883    0.314468    0.579959     0.005394
PD2892   PD        0.210026    0.340582    0.619718     0.005394
PD2893   PD        0.249391    0.313576    0.615694     0.005394
PD2894   PD        0.223642    0.374147    0.567699     0.005394
PD2895   PD        0.273019    0.308749    0.574497     0.005394
PD2896   PD        0.284931    0.345010    0.614706     0.005394
PD2897   PD        0.320700    0.310936    0.616023     0.005394
PD2898   PD        0.291702    0.331369    0.587749     0.005394
PD2899   PD        0.353449    0.309596    0.582392     0.005394
PD2900   PD        0.353070    0.344173    0.616217     0.005394
PD2901   PD        0.387024    0.310093    0.616266     0.005394
PD2902   PD        0.393972    0.403888    0.543870     0.005394
PD2903   PD        0.422277    0.309867    0.582275     0.005394
PD2904   PD        0.423060    0.343957    0.616089     0.005394
PD2905   PD        0.448309    0.318866    0.625303     0.005394
PD2906   PD        0.456653    0.344145    0.580376     0.005394
PD2907   PD        0.489566    0.307659    0.581309     0.005394
PD2908   PD        0.490582    0.343058    0.614680     0.005394
PD2909   PD        0.505862    0.318684    0.624283     0.005394
PD2910   PD        0.539246    0.334243    0.588632     0.005394
PD2911   PD        0.541734    0.295318    0.601306     0.005394
PD2912   PD        0.584807    0.339653    0.605841     0.005394
PD2913   PD        0.617871    0.330321    0.589575     0.005394
PD2914   PD        0.596444    0.344835    0.580511     0.005394
PD2915   PD        0.619647    0.314678    0.581500     0.005394
PD2916   PD        0.633621    0.335455    0.612508     0.005394
PD2917   PD        0.684490    0.333837    0.621272     0.005394
PD2918   PD        0.662849    0.345882    0.586148     0.005394
NI2919   NI        0.720967    0.289842    0.560145     0.004307
NI2920   NI        0.675149    0.358308    0.628672     0.004307
NI2921   NI        0.729378    0.318791    0.621890     0.004307
PD2922   PD        0.701672    0.324115    0.563969     0.005394
NI2923   NI        0.770732    0.341408    0.579352     0.004307
NI2924   NI        0.764627    0.340831    0.612628     0.004307
NI2925   NI        0.783061    0.341596    0.568587     0.004307
NI2926   NI        0.049178    0.404463    0.638252     0.004307
NI2927   NI        0.102823    0.417137    0.568002     0.004307
NI2928   NI        0.049527    0.381855    0.595561     0.004307
NI2929   NI        0.054989    0.420871    0.621060     0.004307
NI2930   NI        0.112695    0.381791    0.624436     0.004307
NI2931   NI        0.109904    0.427336    0.564426     0.004307
PD2932   PD        0.117667    0.354994    0.579413     0.005394
PD2933   PD        0.137837    0.413738    0.599629     0.005394
NI2934   NI        0.173410    0.375025    0.621117     0.004307
PD2935   PD        0.184145    0.417364    0.584175     0.005394
PD2936   PD        0.187838    0.400046    0.583324     0.005394
PD2937   PD        0.218172    0.417906    0.616207     0.005394
PD2938   PD        0.228414    0.417074    0.600189     0.005394
PD2939   PD        0.251722    0.413971    0.580192     0.005394
PD2940   PD        0.286376    0.379953    0.580095     0.005394
PD2941   PD        0.285324    0.413271    0.614536     0.005394
PD2942   PD        0.291231    0.398503    0.617963     0.005394
PD2943   PD        0.320842    0.413507    0.579974     0.005394
PD2944   PD        0.331493    0.367442    0.595355     0.005394
PD2945   PD        0.330738    0.424438    0.625199     0.005394
PD2946   PD        0.388190    0.378503    0.614491     0.005394
PD2947   PD        0.381296    0.398862    0.554247     0.005394
PD2948   PD        0.412741    0.370708    0.576206     0.005394
PD2949   PD        0.431199    0.380535    0.595376     0.005394
PD2950   PD        0.476718    0.397590    0.625580     0.005394
PD2951   PD        0.420352    0.409837    0.558271     0.005394
PD2952   PD        0.490329    0.377835    0.580738     0.005394
PD2953   PD        0.490920    0.412469    0.616183     0.005394
PD2954   PD        0.510004    0.396853    0.619587     0.005394
PD2955   PD        0.524605    0.412109    0.579921     0.005394
PD2956   PD        0.560180    0.376478    0.585643     0.005394
PD2957   PD        0.559141    0.410747    0.616797     0.005394
PD2958   PD        0.615070    0.375578    0.607146     0.005394
PD2959   PD        0.576668    0.434024    0.580624     0.005394
PD2960   PD        0.639626    0.381241    0.565405     0.005394
PD2961   PD        0.649700    0.413103    0.635949     0.005394
PD2962   PD        0.659986    0.375409    0.623155     0.005394
PD2963   PD        0.686542    0.394550    0.569203     0.005394
PD2964   PD        0.694466    0.348232    0.604957     0.005394
NI2965   NI        0.740599    0.413510    0.611842     0.004307
PD2966   PD        0.731531    0.374933    0.622084     0.005394
PD2967   PD        0.732400    0.411010    0.570717     0.005394
NI2968   NI        0.765991    0.383877    0.589199     0.004307
NI2969   NI        0.742538    0.440078    0.615038     0.004307
NI2970   NI        0.785119    0.420838    0.608618     0.004307
NI2971   NI        0.802434    0.420701    0.581938     0.004307
NI2972   NI        0.025295    0.444442    0.588779     0.004307
NI2973   NI        0.009942    0.489624    0.555943     0.004307
NI2974   NI        0.080689    0.453085    0.577453     0.004307
NI2975   NI        0.113748    0.449313    0.618558     0.004307
NI2976   NI        0.074948    0.481000    0.616481     0.004307
NI2977   NI        0.103056    0.516583    0.601113     0.004307
NI2978   NI        0.137963    0.451911    0.621645     0.004307
PD2979   PD        0.192028    0.473885    0.584485     0.005394
PD2980   PD        0.206304    0.453607    0.648638     0.005394
PD2981   PD        0.208936    0.480421    0.589645     0.005394
PD2982   PD        0.205657    0.455866    0.581517     0.005394
PD2983   PD        0.220135    0.484628    0.616147     0.005394
PD2984   PD        0.253749    0.460268    0.638885     0.005394
PD2985   PD        0.258009    0.453653    0.590574     0.005394
PD2986   PD        0.286190    0.447125    0.580472     0.005394
PD2987   PD        0.286290    0.481757    0.614349     0.005394
PD2988   PD        0.324621    0.432859    0.607161     0.005394
PD2989   PD        0.320541    0.481625    0.579997     0.005394
PD2990   PD        0.365934    0.456802    0.603239     0.005394
PD2991   PD        0.387750    0.448591    0.615827     0.005394
PD2992   PD        0.388361    0.447358    0.615926     0.005394
PD2993   PD        0.388993    0.480829    0.580309     0.005394
PD2994   PD        0.424090    0.446641    0.581236     0.005394
PD2995   PD        0.422726    0.480631    0.614910     0.005394
PD2996   PD        0.456544    0.446683    0.615897     0.005394
PD2997   PD        0.457781    0.481184    0.581383     0.005394
PD2998   PD        0.490345    0.446719    0.581045     0.005394
PD2999   PD        0.491019    0.480079    0.615368     0.005394
PD3000   PD        0.530514    0.438807    0.633046     0.005394
PD3001   PD        0.530619    0.498933    0.599891     0.005394
PD3002   PD        0.559988    0.444338    0.582552     0.005394
PD3003   PD        0.575180    0.446924    0.626456     0.005394
PD3004   PD        0.554645    0.485012    0.606130     0.005394
PD3005   PD        0.594700    0.476762    0.595499     0.005394
PD3006   PD        0.644125    0.447411    0.577633     0.005394
PD3007   PD        0.594268    0.479906    0.582122     0.005394
PD3008   PD        0.679381    0.440089    0.610558     0.005394
PD3009   PD        0.667001    0.513804    0.568543     0.005394
PD3010   PD        0.720028    0.452502    0.590869     0.005394
PD3011   PD        0.702625    0.493454    0.608975     0.005394
NI3012   NI        0.735569    0.465714    0.634309     0.004307
PD3013   PD        0.733296    0.493627    0.573657     0.005394
NI3014   NI        0.758696    0.407867    0.529576     0.004307
NI3015   NI        0.769300    0.499145    0.625086     0.004307
NI3016   NI        0.809847    0.429574    0.569098     0.004307
NI3017   NI        0.785218    0.514406    0.581594     0.004307
NI3018   NI        0.069604    0.515483    0.592226     0.004307
NI3019   NI        0.042507    0.569863    0.621107     0.004307
NI3020   NI        0.068383    0.450592    0.566910     0.004307
NI3021   NI        0.052910    0.523001    0.613418     0.004307
NI3022   NI        0.113300    0.491839    0.614509     0.004307
NI3023   NI        0.156535    0.574746    0.572865     0.004307
NI3024   NI        0.139449    0.528163    0.586513     0.004307
NI3025   NI        0.150598    0.523384    0.606210     0.004307
PD3026   PD        0.160083    0.547541    0.623069     0.005394
PD3027   PD        0.182163    0.549017    0.580816     0.005394
PD3028   PD        0.206342    0.517687    0.576146     0.005394
PD3029   PD        0.208581    0.557601    0.619953     0.005394
PD3030   PD        0.235533    0.523701    0.615089     0.005394
PD3031   PD        0.261342    0.579211    0.589972     0.005394
PD3032   PD        0.306523    0.535894    0.571903     0.005394
PD3033   PD        0.293250    0.552440    0.613256     0.005394
PD3034   PD        0.318547    0.514323    0.613071     0.005394
PD3035   PD        0.323599    0.555037    0.593362     0.005394
PD3036   PD        0.366132    0.503816    0.615641     0.005394
PD3037   PD        0.352566    0.550360    0.612842     0.005394
PD3038   PD        0.380647    0.532228    0.625881     0.005394
PD3039   PD        0.432693    0.565919    0.521871     0.005394
PD3040   PD        0.423421    0.515186    0.580001     0.005394
PD3041   PD        0.421554    0.549711    0.614294     0.005394
PD3042   PD        0.463842    0.535590    0.628906     0.005394
PD3043   PD        0.446449    0.555191    0.521982     0.005394
PD3044   PD        0.490938    0.516001    0.580108     0.005394
PD3045   PD        0.502422    0.557958    0.623345     0.005394
PD3046   PD        0.541330    0.507037    0.645017     0.005394
PD3047   PD        0.539488    0.549589    0.592066     0.005394
PD3048   PD        0.570738    0.522439    0.580879     0.005394
PD3049   PD        0.550240    0.563544    0.623657     0.005394
PD3050   PD        0.593106    0.552457    0.644797     0.005394
PD3051   PD        0.599903    0.562462    0.577221     0.005394
PD3052   PD        0.637778    0.546718    0.579023     0.005394
PD3053   PD        0.629744    0.567043    0.617459     0.005394
PD3054   PD        0.662101    0.519817    0.611378     0.005394
PD3055   PD        0.657261    0.559880    0.581037     0.005394
NI3056   NI        0.714404    0.510074    0.579998     0.004307
NI3057   NI        0.728753    0.543784    0.573982     0.004307
NI3058   NI        0.729913    0.509733    0.613018     0.004307
NI3059   NI        0.771966    0.571242    0.595505     0.004307
NI3060   NI        0.781763    0.503790    0.578907     0.004307
NI3061   NI        0.754022    0.515565    0.630711     0.004307
NI3062   NI        0.812357    0.486885    0.612097     0.004307
NI3063   NI        0.805498    0.581180    0.562063     0.004307
NI3064   NI        0.063335    0.547220    0.575033     0.004307
NI3065   NI        0.113788    0.597292    0.612058     0.004307
NI3066   NI        0.107349    0.586668    0.606929     0.004307
NI3067   NI        0.129932    0.613729    0.581817     0.004307
NI3068   NI        0.123270    0.589348    0.542245     0.004307
NI3069   NI        0.153496    0.636534    0.632729     0.004307
NI3070   NI        0.194004    0.543995    0.613349     0.004307
PD3071   PD        0.173423    0.618822    0.579728     0.005394
PD3072   PD        0.194546    0.592622    0.589539     0.005394
PD3073   PD        0.204228    0.627991    0.619888     0.005394
PD3074   PD        0.232494    0.609575    0.611820     0.005394
PD3075   PD        0.233424    0.644239    0.577195     0.005394
PD3076   PD        0.297833    0.577007    0.604012     0.005394
PD3077   PD        0.273498    0.625396    0.594814     0.005394
PD3078   PD        0.341434    0.595751    0.620672     0.005394
PD3079   PD        0.315554    0.634091    0.570440     0.005394
PD3080   PD        0.334355    0.574391    0.599100     0.005394
PD3081   PD        0.357934    0.633387    0.597180     0.005394
PD3082   PD        0.390551    0.600855    0.611511     0.005394
PD3083   PD        0.404683    0.613583    0.566417     0.005394
PD3084   PD        0.429483    0.593610    0.585182     0.005394
PD3085   PD        0.436630    0.638631    0.605761     0.005394
PD3086   PD        0.442857    0.587067    0.636978     0.005394
PD3087   PD        0.453219    0.619132    0.584647     0.005394
PD3088   PD        0.498903    0.624053    0.584015     0.005394
PD3089   PD        0.484947    0.638278    0.616359     0.005394
PD3090   PD        0.545819    0.570434    0.610090     0.005394
PD3091   PD        0.525742    0.639514    0.566800     0.005394
PD3092   PD        0.530831    0.623279    0.548784     0.005394
NI3093   NI        0.570226    0.643643    0.620769     0.004307
PD3094   PD        0.598288    0.570394    0.615610     0.005394
PD3095   PD        0.604645    0.624551    0.587183     0.005394
PD3096   PD        0.624638    0.589954    0.596560     0.005394
PD3097   PD        0.637238    0.622973    0.629652     0.005394
PD3098   PD        0.670491    0.589820    0.616855     0.005394
NI3099   NI        0.685756    0.634075    0.607016     0.004307
PD3100   PD        0.698226    0.598796    0.579102     0.005394
NI3101   NI        0.709412    0.633297    0.613042     0.004307
NI3102   NI        0.766969    0.584434    0.637476     0.004307
NI3103   NI        0.729895    0.636268    0.584003     0.004307
NI3104   NI        0.796481    0.558545    0.597776     0.004307
NI3105   NI        0.744070    0.643662    0.629782     0.004307
NI3106   NI        0.119413    0.667695    0.616861     0.004307
NI3107   NI        0.127436    0.697265    0.612966     0.004307
NI3108   NI        0.146013    0.675142    0.613059     0.004307
NI3109   NI        0.147082    0.721715    0.626777     0.004307
NI3110   NI        0.165823    0.681500    0.635737     0.004307
NI3111   NI        0.172104    0.700692    0.590037     0.004307
NI3112   NI        0.229557    0.677007    0.581312     0.004307
NI3113   NI        0.186715    0.674013    0.639938     0.004307
NI3114   NI        0.246504    0.680268    0.606270     0.004307
PD3115   PD        0.232465    0.716014    0.532864     0.005394
NI3116   NI        0.282506    0.669758    0.581122     0.004307
PD3117   PD        0.268059    0.697676    0.598132     0.005394
PD3118   PD        0.316159    0.620453    0.604078     0.005394
PD3119   PD        0.325782    0.688086    0.577529     0.005394
PD3120   PD        0.354631    0.655126    0.555122     0.005394
PD3121   PD        0.366960    0.714907    0.577531     0.005394
PD3122   PD        0.391703    0.657989    0.599826     0.005394
PD3123   PD        0.432691    0.675481    0.585868     0.005394
PD3124   PD        0.419932    0.653721    0.581660     0.005394
PD3125   PD        0.417480    0.721085    0.590920     0.005394
PD3126   PD        0.453204    0.674020    0.629688     0.005394
PD3127   PD        0.469445    0.698573    0.562887     0.005394
PD3128   PD        0.482383    0.657361    0.580618     0.005394
PD3129   PD        0.457430    0.713249    0.605193     0.005394
PD3130   PD        0.523721    0.682057    0.650981     0.005394
NI3131   NI        0.498937    0.678181    0.639404     0.004307
PD3132   PD        0.503147    0.653797    0.573583     0.005394
NI3133   NI        0.566922    0.728294    0.646492     0.004307
PD3134   PD        0.593811    0.667238    0.596833     0.005394
NI3135   NI        0.602784    0.702087    0.615802     0.004307
PD3136   PD        0.647182    0.646253    0.588091     0.005394
NI3137   NI        0.626652    0.687422    0.571781     0.004307
NI3138   NI        0.691068    0.665553    0.587097     0.004307
NI3139   NI        0.660408    0.721816    0.571616     0.004307
NI3140   NI        0.728123    0.657767    0.648265     0.004307
NI3141   NI        0.723638    0.704838    0.634439     0.004307
NI3142   NI        0.764615    0.693045    0.614634     0.004307
NI3143   NI        0.761229    0.662269    0.537285     0.004307
NI3144   NI        0.141143    0.704128    0.552824     0.004307
NI3145   NI        0.190348    0.718942    0.619615     0.004307
NI3146   NI        0.166603    0.758240    0.548770     0.004307
NI3147   NI        0.213417    0.706894    0.613209     0.004307
NI3148   NI        0.205902    0.753491    0.605231     0.004307
NI3149   NI        0.249573    0.735313    0.615825     0.004307
NI3150   NI        0.223587    0.756612    0.555285     0.004307
NI3151   NI        0.288026    0.740052    0.586499     0.004307
NI3152   NI        0.270412    0.773626    0.639869     0.004307
NI3153   NI        0.334253    0.750491    0.590717     0.004307
NI3154   NI        0.297985    0.759004    0.554773     0.004307
NI3155   NI        0.377122    0.736903    0.573862     0.004307
NI3156   NI        0.313311    0.794355    0.602400     0.004307
PD3157   PD        0.388358    0.722797    0.616880     0.005394
NI3158   NI        0.383146    0.754451    0.578593     0.004307
NI3159   NI        0.423415    0.733319    0.588911     0.004307
NI3160   NI        0.381702    0.757226    0.586913     0.004307
PD3161   PD        0.432513    0.716974    0.636144     0.005394
NI3162   NI        0.454801    0.773545    0.618760     0.004307
PD3163   PD        0.518706    0.717222    0.600878     0.005394
NI3164   NI        0.486499    0.747770    0.642101     0.004307
NI3165   NI        0.528884    0.735550    0.630525     0.004307
NI3166   NI        0.585856    0.760323    0.571038     0.004307
NI3167   NI        0.564523    0.718516    0.563273     0.004307
NI3168   NI        0.562673    0.726955    0.619722     0.004307
NI3169   NI        0.608945    0.710932    0.627975     0.004307
NI3170   NI        0.568911    0.774154    0.591983     0.004307
NI3171   NI        0.679527    0.731740    0.588404     0.004307
NI3172   NI        0.660158    0.770572    0.633239     0.004307
NI3173   NI        0.685828    0.698370    0.604017     0.004307
NI3174   NI        0.630407    0.732493    0.636468     0.004307
NI3175   NI        0.681852    0.763646    0.551935     0.004307
NI3176   NI        0.229632    0.770974    0.617921     0.004307
NI3177   NI        0.291744    0.827532    0.549310     0.004307
NI3178   NI        0.340508    0.805233    0.607838     0.004307
NI3179   NI        0.317696    0.832061    0.576663     0.004307
NI3180   NI        0.342873    0.796159    0.559932     0.004307
NI3181   NI        0.350653    0.850999    0.623172     0.004307
NI3182   NI        0.386805    0.819391    0.626350     0.004307
NI3183   NI        0.396985    0.839492    0.567242     0.004307
NI3184   NI        0.418190    0.830679    0.573401     0.004307
NI3185   NI        0.429745    0.843306    0.630534     0.004307
NI3186   NI        0.428968    0.798269    0.607715     0.004307
NI3187   NI        0.461136    0.834853    0.594676     0.004307
NI3188   NI        0.465294    0.792747    0.575634     0.004307
NI3189   NI        0.520134    0.807737    0.649686     0.004307
NI3190   NI        0.537468    0.779914    0.617083     0.004307
NI3191   NI        0.477720    0.838288    0.630543     0.004307
PD3192   PD        0.531215    0.756418    0.517217     0.005394
NI3193   NI        0.590939    0.818565    0.638565     0.004307
NI3194   NI        0.258332    0.129785    0.669434     0.004307
NI3195   NI        0.315289    0.105051    0.677597     0.004307
NI3196   NI        0.308466    0.135027    0.640810     0.004307
NI3197   NI        0.357592    0.097558    0.657508     0.004307
NI3198   NI        0.338927    0.133446    0.730697     0.004307
NI3199   NI        0.403312    0.088208    0.652890     0.004307
NI3200   NI        0.407064    0.186014    0.663918     0.004307
NI3201   NI        0.398405    0.104294    0.684026     0.004307
NI3202   NI        0.465090    0.143980    0.714561     0.004307
NI3203   NI        0.431743    0.125425    0.683827     0.004307
NI3204   NI        0.459303    0.146771    0.641390     0.004307
NI3205   NI        0.484559    0.098703    0.637953     0.004307
NI3206   NI        0.490657    0.174509    0.650927     0.004307
NI3207   NI        0.519114    0.122031    0.643019     0.004307
NI3208   NI        0.557712    0.115340    0.710097     0.004307
NI3209   NI        0.563778    0.137976    0.667885     0.004307
NI3210   NI        0.176933    0.203625    0.632626     0.004307
NI3211   NI        0.245983    0.175204    0.673772     0.004307
NI3212   NI        0.224703    0.163679    0.683168     0.004307
NI3213   NI        0.224130    0.156772    0.700994     0.004307
PD3214   PD        0.246989    0.317419    0.634877     0.005394
NI3215   NI        0.291886    0.162408    0.663726     0.004307
NI3216   NI        0.265808    0.175484    0.716690     0.004307
NI3217   NI        0.343162    0.159480    0.689138     0.004307
NI3218   NI        0.282616    0.208166    0.676287     0.004307
NI3219   NI        0.337915    0.140551    0.644551     0.004307
NI3220   NI        0.350248    0.219488    0.685563     0.004307
NI3221   NI        0.358260    0.176599    0.661423     0.004307
PD3222   PD        0.387370    0.207109    0.650602     0.005394
NI3223   NI        0.403632    0.164159    0.672064     0.004307
PD3224   PD        0.419363    0.208873    0.687101     0.005394
PD3225   PD        0.450418    0.169196    0.678053     0.005394
NI3226   NI        0.430981    0.199405    0.673485     0.004307
NI3227   NI        0.492535    0.179746    0.657753     0.004307
NI3228   NI        0.483961    0.219520    0.680889     0.004307
NI3229   NI        0.496812    0.183855    0.676422     0.004307
NI3230   NI        0.550638    0.203044    0.670627     0.004307
NI3231   NI        0.509044    0.166006    0.634217     0.004307
NI3232   NI        0.566574    0.218456    0.708700     0.004307
NI3233   NI        0.593679    0.187403    0.689654     0.004307
NI3234   NI        0.589831    0.204035    0.642773     0.004307
NI3235   NI        0.558917    0.185037    0.599746     0.004307
NI3236   NI        0.628132    0.159134    0.703751     0.004307
NI3237   NI        0.646260    0.235277    0.637016     0.004307
NI3238   NI        0.070809    0.309884    0.634560     0.004307
NI3239   NI        0.142599    0.241604    0.624552     0.004307
NI3240   NI        0.134863    0.263106    0.664322     0.004307
NI3241   NI        0.168720    0.241932    0.689331     0.004307
NI3242   NI        0.209817    0.262928    0.653506     0.004307
NI3243   NI        0.207163    0.236535    0.614260     0.004307
NI3244   NI        0.214104    0.244507    0.705357     0.004307
PD3245   PD        0.250386    0.243832    0.683170     0.005394
PD3246   PD        0.250699    0.283526    0.655405     0.005394
PD3247   PD        0.306430    0.263629    0.647470     0.005394
PD3248   PD        0.280134    0.273885    0.652547     0.005394
PD3249   PD        0.310253    0.291489    0.685890     0.005394
PD3250   PD        0.318086    0.277809    0.650331     0.005394
NI3251   NI        0.375234    0.222546    0.673028     0.004307
PD3252   PD        0.352611    0.276936    0.684068     0.005394
NI3253   NI        0.417993    0.292794    0.690254     0.004307
PD3254   PD        0.387299    0.276307    0.651685     0.005394
PD3255   PD        0.418063    0.235059    0.632123     0.005394
PD3256   PD        0.457095    0.328118    0.708124     0.005394
NI3257   NI        0.438483    0.211403    0.690587     0.004307
PD3258   PD        0.454779    0.274822    0.651025     0.005394
NI3259   NI        0.468703    0.226553    0.663442     0.004307
NI3260   NI        0.491310    0.298032    0.728940     0.004307
NI3261   NI        0.526851    0.239506    0.693610     0.004307
PD3262   PD        0.496644    0.266231    0.669483     0.005394
NI3263   NI        0.570531    0.247373    0.672092     0.004307
NI3264   NI        0.567951    0.288488    0.697879     0.004307
NI3265   NI        0.589047    0.245401    0.697009     0.004307
PD3266   PD        0.614994    0.263285    0.659907     0.005394
NI3267   NI        0.654027    0.250720    0.681539     0.004307
NI3268   NI        0.645152    0.283751    0.690827     0.004307
NI3269   NI        0.629206    0.261821    0.675101     0.004307
PD3270   PD        0.656267    0.282880    0.643318     0.005394
NI3271   NI        0.710861    0.246662    0.655323     0.004307
NI3272   NI        0.678917    0.315770    0.688023     0.004307
NI3273   NI        0.694037    0.290241    0.641921     0.004307
NI3274   NI        0.110935    0.332883    0.693942     0.004307
NI3275   NI        0.088492    0.349335    0.645006     0.004307
NI3276   NI        0.111675    0.312276    0.652913     0.004307
NI3277   NI        0.146214    0.398266    0.715395     0.004307
NI3278   NI        0.156535    0.317307    0.725390     0.004307
PD3279   PD        0.214847    0.349525    0.617647     0.005394
NI3280   NI        0.193861    0.321537    0.678684     0.004307
NI3281   NI        0.224782    0.361283    0.678540     0.004307
PD3282   PD        0.265174    0.288469    0.669727     0.005394
NI3283   NI        0.230107    0.351606    0.663780     0.004307
PD3284   PD        0.291142    0.320810    0.654135     0.005394
PD3285   PD        0.299556    0.337821    0.696931     0.005394
PD3286   PD        0.318247    0.312577    0.685654     0.005394
PD3287   PD        0.319148    0.346427    0.650250     0.005394
PD3288   PD        0.378873    0.287165    0.645784     0.005394
PD3289   PD        0.353222    0.345342    0.683122     0.005394
PD3290   PD        0.358521    0.284413    0.689084     0.005394
PD3291   PD        0.372258    0.332568    0.639319     0.005394
PD3292   PD        0.431178    0.280740    0.645420     0.005394
PD3293   PD        0.379524    0.330833    0.709660     0.005394
PD3294   PD        0.490057    0.309017    0.650202     0.005394
PD3295   PD        0.447861    0.354535    0.628816     0.005394
PD3296   PD        0.477355    0.286157    0.644678     0.005394
PD3297   PD        0.490594    0.343783    0.682504     0.005394
PD3298   PD        0.550112    0.309947    0.694815     0.005394
PD3299   PD        0.544880    0.370310    0.639972     0.005394
PD3300   PD        0.563697    0.329213    0.654437     0.005394
PD3301   PD        0.558234    0.381901    0.722303     0.005394
PD3302   PD        0.595388    0.310139    0.683422     0.005394
PD3303   PD        0.607401    0.349116    0.648541     0.005394
PD3304   PD        0.626091    0.303222    0.648455     0.005394
NI3305   NI        0.645007    0.352043    0.690428     0.004307
NI3306   NI        0.661984    0.269683    0.690140     0.004307
PD3307   PD        0.657948    0.397829    0.607527     0.005394
PD3308   PD        0.652319    0.364329    0.640872     0.005394
NI3309   NI        0.689613    0.337767    0.675663     0.004307
NI3310   NI        0.798810    0.334390    0.676665     0.004307
NI3311   NI        0.698471    0.298904    0.648926     0.004307
NI3312   NI        0.041497    0.407334    0.687657     0.004307
NI3313   NI        0.079263    0.391103    0.714818     0.004307
NI3314   NI        0.105166    0.380600    0.698236     0.004307
NI3315   NI        0.117071    0.411629    0.637692     0.004307
NI3316   NI        0.132296    0.360161    0.661932     0.004307
NI3317   NI        0.154714    0.446254    0.704172     0.004307
PD3318   PD        0.182465    0.385923    0.686572     0.005394
NI3319   NI        0.175018    0.406333    0.631466     0.004307
PD3320   PD        0.249373    0.388831    0.638331     0.005394
PD3321   PD        0.217033    0.420475    0.684424     0.005394
PD3322   PD        0.250371    0.381155    0.685158     0.005394
PD3323   PD        0.252251    0.415548    0.649924     0.005394
PD3324   PD        0.252913    0.404952    0.648737     0.005394
PD3325   PD        0.289977    0.408861    0.694388     0.005394
PD3326   PD        0.318259    0.380386    0.683075     0.005394
PD3327   PD        0.320279    0.413637    0.649730     0.005394
PD3328   PD        0.354509    0.378399    0.649532     0.005394
PD3329   PD        0.326867    0.429329    0.684752     0.005394
PD3330   PD        0.395432    0.370791    0.690103     0.005394
PD3331   PD        0.387217    0.412969    0.649152     0.005394
PD3332   PD        0.421764    0.377319    0.650667     0.005394
PD3333   PD        0.434519    0.395732    0.697684     0.005394
PD3334   PD        0.456573    0.378090    0.684683     0.005394
PD3335   PD        0.455869    0.412249    0.649761     0.005394
PD3336   PD        0.496525    0.389899    0.666316     0.005394
PD3337   PD        0.500744    0.416866    0.694149     0.005394
PD3338   PD        0.483352    0.378992    0.670129     0.005394
PD3339   PD        0.523438    0.410838    0.651155     0.005394
PD3340   PD        0.563694    0.410966    0.656712     0.005394
PD3341   PD        0.558583    0.397206    0.722925     0.005394
PD3342   PD        0.592978    0.392303    0.691296     0.005394
PD3343   PD        0.597942    0.423733    0.659506     0.005394
PD3344   PD        0.628209    0.343625    0.677089     0.005394
NI3345   NI        0.660940    0.395841    0.677521     0.004307
PD3346   PD        0.640780    0.439323    0.674961     0.005394
PD3347   PD        0.662813    0.412526    0.647145     0.005394
NI3348   NI        0.694548    0.386609    0.652375     0.004307
NI3349   NI        0.719718    0.426805    0.655509     0.004307
NI3350   NI        0.703983    0.385835    0.701006     0.004307
NI3351   NI        0.750108    0.380184    0.634668     0.004307
NI3352   NI        0.774214    0.390429    0.636574     0.004307
NI3353   NI        0.786705    0.382248    0.683268     0.004307
NI3354   NI        0.079623    0.452903    0.648533     0.004307
NI3355   NI        0.060843    0.486595    0.668786     0.004307
NI3356   NI        0.097163    0.477059    0.695778     0.004307
NI3357   NI        0.102731    0.478103    0.656916     0.004307
PD3358   PD        0.171821    0.473779    0.621136     0.005394
NI3359   NI        0.127364    0.507734    0.654824     0.004307
NI3360   NI        0.162695    0.442674    0.700894     0.004307
NI3361   NI        0.144830    0.466985    0.640500     0.004307
PD3362   PD        0.217491    0.451223    0.650634     0.005394
NI3363   NI        0.199621    0.466349    0.680229     0.004307
NI3364   NI        0.220290    0.442613    0.695195     0.004307
PD3365   PD        0.218845    0.474537    0.608313     0.005394
PD3366   PD        0.287090    0.448425    0.648279     0.005394
PD3367   PD        0.261940    0.498360    0.690164     0.005394
PD3368   PD        0.315123    0.438687    0.691456     0.005394
PD3369   PD        0.295853    0.483047    0.657713     0.005394
PD3370   PD        0.341457    0.472253    0.668109     0.005394
PD3371   PD        0.351402    0.459218    0.713378     0.005394
PD3372   PD        0.411738    0.434426    0.687919     0.005394
PD3373   PD        0.388834    0.480855    0.649718     0.005394
PD3374   PD        0.421615    0.445332    0.649142     0.005394
PD3375   PD        0.433571    0.483564    0.706412     0.005394
PD3376   PD        0.457350    0.435490    0.699328     0.005394
PD3377   PD        0.472773    0.498399    0.658076     0.005394
PD3378   PD        0.492135    0.445943    0.649256     0.005394
PD3379   PD        0.493063    0.478541    0.684893     0.005394
PD3380   PD        0.533041    0.447725    0.679237     0.005394
PD3381   PD        0.525364    0.482623    0.649542     0.005394
PD3382   PD        0.575448    0.457024    0.686619     0.005394
PD3383   PD        0.560455    0.472523    0.687579     0.005394
NI3384   NI        0.600269    0.451099    0.699123     0.004307
PD3385   PD        0.617069    0.499166    0.678375     0.005394
PD3386   PD        0.637002    0.454618    0.656605     0.005394
PD3387   PD        0.621986    0.481086    0.689991     0.005394
NI3388   NI        0.686691    0.421725    0.688582     0.004307
PD3389   PD        0.608985    0.534467    0.645182     0.005394
PD3390   PD        0.689323    0.465669    0.649642     0.005394
NI3391   NI        0.693624    0.469066    0.693328     0.004307
NI3392   NI        0.767296    0.410135    0.688158     0.004307
NI3393   NI        0.729734    0.485860    0.648535     0.004307
NI3394   NI        0.780327    0.469299    0.614071     0.004307
NI3395   NI        0.744366    0.513800    0.678952     0.004307
NI3396   NI        0.081109    0.503708    0.659254     0.004307
NI3397   NI        0.097570    0.546355    0.678610     0.004307
NI3398   NI        0.129091    0.570537    0.650327     0.004307
PD3399   PD        0.161518    0.509500    0.652286     0.005394
NI3400   NI        0.201134    0.565227    0.693963     0.004307
PD3401   PD        0.181731    0.485725    0.715267     0.005394
PD3402   PD        0.174850    0.557448    0.654272     0.005394
PD3403   PD        0.208535    0.523161    0.654640     0.005394
PD3404   PD        0.210990    0.560312    0.687350     0.005394
NI3405   NI        0.220108    0.515239    0.707130     0.004307
PD3406   PD        0.254857    0.562401    0.638424     0.005394
NI3407   NI        0.263507    0.525140    0.676979     0.004307
PD3408   PD        0.293448    0.552409    0.682390     0.005394
PD3409   PD        0.318825    0.512512    0.684506     0.005394
PD3410   PD        0.316014    0.568246    0.642599     0.005394
PD3411   PD        0.366742    0.522890    0.649839     0.005394
PD3412   PD        0.340759    0.554295    0.677444     0.005394
PD3413   PD        0.396152    0.522791    0.670713     0.005394
PD3414   PD        0.383534    0.558187    0.642681     0.005394
PD3415   PD        0.432838    0.516125    0.642666     0.005394
PD3416   PD        0.382541    0.534438    0.662792     0.005394
PD3417   PD        0.458904    0.517355    0.682112     0.005394
PD3418   PD        0.448878    0.566623    0.662752     0.005394
PD3419   PD        0.501153    0.549836    0.648478     0.005394
PD3420   PD        0.501949    0.562807    0.693892     0.005394
PD3421   PD        0.541667    0.534915    0.684760     0.005394
PD3422   PD        0.530716    0.554328    0.662120     0.005394
PD3423   PD        0.540670    0.528054    0.658638     0.005394
NI3424   NI        0.547549    0.549004    0.701688     0.004307
PD3425   PD        0.596827    0.514354    0.674922     0.005394
NI3426   NI        0.610257    0.546973    0.679486     0.004307
PD3427   PD        0.636384    0.540537    0.660604     0.005394
NI3428   NI        0.649677    0.527536    0.702420     0.004307
PD3429   PD        0.662069    0.504588    0.696419     0.005394
PD3430   PD        0.677323    0.549428    0.644819     0.005394
NI3431   NI        0.662005    0.504855    0.660334     0.004307
NI3432   NI        0.701194    0.578287    0.694571     0.004307
NI3433   NI        0.701926    0.489285    0.676690     0.004307
NI3434   NI        0.701508    0.562975    0.650858     0.004307
NI3435   NI        0.757648    0.522503    0.663625     0.004307
NI3436   NI        0.095712    0.556759    0.676202     0.004307
NI3437   NI        0.111587    0.614587    0.643926     0.004307
NI3438   NI        0.161690    0.601759    0.665456     0.004307
NI3439   NI        0.142297    0.611694    0.672912     0.004307
NI3440   NI        0.192831    0.589109    0.686699     0.004307
NI3441   NI        0.178594    0.616216    0.650875     0.004307
PD3442   PD        0.216156    0.588481    0.646596     0.005394
NI3443   NI        0.254795    0.645976    0.655278     0.004307
NI3444   NI        0.234899    0.603826    0.643802     0.004307
PD3445   PD        0.252395    0.620389    0.655400     0.005394
PD3446   PD        0.295822    0.580103    0.622311     0.005394
PD3447   PD        0.293976    0.635710    0.676755     0.005394
PD3448   PD        0.315293    0.594332    0.683460     0.005394
PD3449   PD        0.271943    0.615864    0.618539     0.005394
PD3450   PD        0.335033    0.599071    0.643327     0.005394
PD3451   PD        0.387713    0.614596    0.721325     0.005394
PD3452   PD        0.403166    0.577490    0.665212     0.005394
PD3453   PD        0.371139    0.627851    0.642354     0.005394
PD3454   PD        0.402690    0.551910    0.654541     0.005394
PD3455   PD        0.436677    0.643475    0.696927     0.005394
PD3456   PD        0.465483    0.604673    0.674350     0.005394
PD3457   PD        0.457206    0.630534    0.631619     0.005394
PD3458   PD        0.491469    0.584672    0.652443     0.005394
PD3459   PD        0.474608    0.623648    0.672974     0.005394
PD3460   PD        0.545865    0.583419    0.682017     0.005394
PD3461   PD        0.516788    0.634621    0.652553     0.005394
PD3462   PD        0.539988    0.579327    0.641549     0.005394
PD3463   PD        0.590624    0.652225    0.690507     0.005394
PD3464   PD        0.609016    0.554864    0.698307     0.005394
PD3465   PD        0.584429    0.647288    0.642719     0.005394
PD3466   PD        0.642274    0.602025    0.606727     0.005394
PD3467   PD        0.614243    0.594844    0.678120     0.005394
NI3468   NI        0.652106    0.622829    0.673779     0.004307
NI3469   NI        0.676640    0.660152    0.691626     0.004307
NI3470   NI        0.708127    0.620840    0.674318     0.004307
NI3471   NI        0.707296    0.581544    0.645990     0.004307
NI3472   NI        0.721024    0.615529    0.677431     0.004307
NI3473   NI        0.746815    0.625234    0.619056     0.004307
NI3474   NI        0.155992    0.660013    0.646218     0.004307
NI3475   NI        0.140767    0.685220    0.656554     0.004307
NI3476   NI        0.186906    0.683204    0.668763     0.004307
NI3477   NI        0.209836    0.640272    0.667549     0.004307
NI3478   NI        0.230633    0.689803    0.688763     0.004307
NI3479   NI        0.250763    0.656167    0.684230     0.004307
PD3480   PD        0.249831    0.693533    0.643588     0.005394
PD3481   PD        0.276970    0.660057    0.639849     0.005394
NI3482   NI        0.301957    0.729319    0.702812     0.004307
PD3483   PD        0.312479    0.676658    0.667037     0.005394
PD3484   PD        0.328909    0.645391    0.642852     0.005394
NI3485   NI        0.350646    0.669424    0.658351     0.004307
NI3486   NI        0.358221    0.678748    0.653460     0.004307
PD3487   PD        0.422091    0.617961    0.685520     0.005394
NI3488   NI        0.417521    0.703233    0.639722     0.004307
PD3489   PD        0.375575    0.640909    0.628660     0.005394
PD3490   PD        0.421053    0.686260    0.673648     0.005394
PD3491   PD        0.467980    0.673030    0.676090     0.005394
NI3492   NI        0.464694    0.689835    0.659585     0.004307
PD3493   PD        0.479815    0.666018    0.653393     0.005394
PD3494   PD        0.498663    0.707290    0.689699     0.005394
PD3495   PD        0.507844    0.660199    0.690184     0.005394
NI3496   NI        0.515190    0.722588    0.627376     0.004307
PD3497   PD        0.555724    0.661610    0.656829     0.005394
PD3498   PD        0.551025    0.666244    0.669648     0.005394
PD3499   PD        0.591379    0.661354    0.688434     0.005394
NI3500   NI        0.606242    0.695260    0.660108     0.004307
NI3501   NI        0.635428    0.648643    0.671335     0.004307
NI3502   NI        0.632289    0.676650    0.682447     0.004307
NI3503   NI        0.635346    0.664752    0.687004     0.004307
NI3504   NI        0.650596    0.704224    0.647249     0.004307
NI3505   NI        0.701679    0.648406    0.647238     0.004307
NI3506   NI        0.193156    0.670131    0.622696     0.004307
NI3507   NI        0.230313    0.755266    0.662271     0.004307
NI3508   NI        0.230120    0.772556    0.663168     0.004307
NI3509   NI        0.264003    0.723825    0.675762     0.004307
NI3510   NI        0.312785    0.750849    0.646660     0.004307
NI3511   NI        0.337239    0.699036    0.706450     0.004307
NI3512   NI        0.327419    0.765339    0.635171     0.004307
NI3513   NI        0.346891    0.730525    0.670523     0.004307
NI3514   NI        0.318606    0.757499    0.647410     0.004307
NI3515   NI        0.421292    0.733553    0.679539     0.004307
NI3516   NI        0.367952    0.747150    0.653264     0.004307
NI3517   NI        0.444489    0.752253    0.665427     0.004307
NI3518   NI        0.389290    0.753059    0.669024     0.004307
NI3519   NI        0.457263    0.746027    0.710363     0.004307
NI3520   NI        0.451877    0.769074    0.667486     0.004307
PD3521   PD        0.460941    0.710696    0.659441     0.005394
NI3522   NI        0.507078    0.701659    0.667720     0.004307
NI3523   NI        0.539761    0.723761    0.707687     0.004307
NI3524   NI        0.555986    0.791938    0.656186     0.004307
NI3525   NI        0.562838    0.706559    0.643675     0.004307
NI3526   NI        0.566888    0.726736    0.707355     0.004307
NI3527   NI        0.583473    0.724755    0.690927     0.004307
NI3528   NI        0.579283    0.774459    0.653527     0.004307
NI3529   NI        0.617044    0.737964    0.641961     0.004307
NI3530   NI        0.419511    0.789853    0.672860     0.004307
NI3531   NI        0.371578    0.793625    0.662850     0.004307
NI3532   NI        0.415468    0.786163    0.645712     0.004307
NI3533   NI        0.490716    0.754189    0.685456     0.004307
NI3534   NI        0.495987    0.772438    0.642127     0.004307
NI3535   NI        0.380935    0.155699    0.719135     0.004307
NI3536   NI        0.462364    0.131305    0.723332     0.004307
NI3537   NI        0.282710    0.207699    0.675284     0.004307
NI3538   NI        0.303210    0.183098    0.708159     0.004307
NI3539   NI        0.321951    0.215293    0.722845     0.004307
NI3540   NI        0.314633    0.206478    0.712959     0.004307
PD3541   PD        0.350539    0.244356    0.651988     0.005394
NI3542   NI        0.367989    0.210197    0.753252     0.004307
NI3543   NI        0.384621    0.165912    0.765762     0.004307
NI3544   NI        0.382411    0.205620    0.717837     0.004307
NI3545   NI        0.439349    0.168286    0.703473     0.004307
NI3546   NI        0.432670    0.159463    0.746482     0.004307
NI3547   NI        0.385923    0.167059    0.739386     0.004307
NI3548   NI        0.453839    0.170101    0.749933     0.004307
NI3549   NI        0.536376    0.196779    0.701902     0.004307
NI3550   NI        0.485291    0.204476    0.755462     0.004307
NI3551   NI        0.531641    0.199161    0.748456     0.004307
NI3552   NI        0.535975    0.187196    0.726805     0.004307
NI3553   NI        0.536587    0.191295    0.735255     0.004307
NI3554   NI        0.614039    0.204692    0.701561     0.004307
NI3555   NI        0.213260    0.284147    0.734618     0.004307
NI3556   NI        0.209163    0.253506    0.709807     0.004307
NI3557   NI        0.190995    0.257396    0.767658     0.004307
NI3558   NI        0.250985    0.259435    0.733365     0.004307
NI3559   NI        0.279097    0.273846    0.749376     0.004307
NI3560   NI        0.282446    0.205438    0.749425     0.004307
NI3561   NI        0.272641    0.274617    0.758975     0.004307
NI3562   NI        0.315920    0.247965    0.755163     0.004307
PD3563   PD        0.324132    0.318617    0.756277     0.005394
NI3564   NI        0.330025    0.214899    0.726679     0.004307
NI3565   NI        0.351074    0.254728    0.745216     0.004307
NI3566   NI        0.389039    0.237593    0.786062     0.004307
PD3567   PD        0.358750    0.283879    0.752881     0.005394
PD3568   PD        0.423171    0.252085    0.708694     0.005394
NI3569   NI        0.398707    0.260593    0.741441     0.004307
NI3570   NI        0.465596    0.233445    0.723376     0.004307
PD3571   PD        0.451063    0.254179    0.670220     0.005394
NI3572   NI        0.492751    0.272473    0.742279     0.004307
NI3573   NI        0.503395    0.279893    0.750863     0.004307
NI3574   NI        0.554586    0.239699    0.786799     0.004307
NI3575   NI        0.542974    0.300150    0.731534     0.004307
NI3576   NI        0.539113    0.231554    0.761816     0.004307
NI3577   NI        0.577075    0.260837    0.754283     0.004307
NI3578   NI        0.565831    0.218350    0.777507     0.004307
PD3579   PD        0.564348    0.264709    0.706260     0.005394
NI3580   NI        0.613619    0.267686    0.706693     0.004307
NI3581   NI        0.658445    0.343714    0.792355     0.004307
NI3582   NI        0.661016    0.276317    0.722511     0.004307
NI3583   NI        0.111096    0.325921    0.739772     0.004307
NI3584   NI        0.190987    0.319602    0.760524     0.004307
NI3585   NI        0.179201    0.339871    0.697968     0.004307
NI3586   NI        0.231231    0.304084    0.738807     0.004307
NI3587   NI        0.165367    0.360143    0.748304     0.004307
NI3588   NI        0.239015    0.324764    0.750287     0.004307
NI3589   NI        0.254157    0.291649    0.720161     0.004307
PD3590   PD        0.353725    0.389907    0.675012     0.005394
PD3591   PD        0.293876    0.355888    0.756298     0.005394
NI3592   NI        0.306766    0.297277    0.733215     0.004307
PD3593   PD        0.331476    0.322551    0.708999     0.005394
PD3594   PD        0.352975    0.310702    0.718000     0.005394
NI3595   NI        0.377243    0.339097    0.757375     0.004307
PD3596   PD        0.361209    0.320355    0.721214     0.005394
PD3597   PD        0.385214    0.370914    0.727948     0.005394
NI3598   NI        0.401539    0.300359    0.771674     0.004307
PD3599   PD        0.419923    0.364135    0.759672     0.005394
NI3600   NI        0.460004    0.321263    0.755246     0.004307
NI3601   NI        0.484297    0.352869    0.723509     0.004307
PD3602   PD        0.502811    0.307818    0.708746     0.005394
NI3603   NI        0.496790    0.351688    0.755724     0.004307
NI3604   NI        0.526257    0.323228    0.750520     0.004307
PD3605   PD        0.578618    0.411107    0.682448     0.005394
PD3606   PD        0.560536    0.312895    0.717610     0.005394
PD3607   PD        0.535844    0.341210    0.692386     0.005394
NI3608   NI        0.592998    0.308945    0.753341     0.004307
PD3609   PD        0.588768    0.359003    0.750927     0.005394
NI3610   NI        0.607592    0.319816    0.728983     0.004307
NI3611   NI        0.598259    0.327046    0.748481     0.004307
NI3612   NI        0.671712    0.282576    0.770587     0.004307
NI3613   NI        0.677663    0.350304    0.680371     0.004307
NI3614   NI        0.701406    0.344179    0.722078     0.004307
PD3615   PD        0.185766    0.419220    0.720091     0.005394
NI3616   NI        0.146621    0.361979    0.707944     0.004307
NI3617   NI        0.155633    0.417725    0.758731     0.004307
NI3618   NI        0.195789    0.392930    0.761520     0.004307
NI3619   NI        0.167921    0.401523    0.724238     0.004307
NI3620   NI        0.254709    0.337379    0.735933     0.004307
NI3621   NI        0.221978    0.423691    0.752397     0.004307
NI3622   NI        0.228540    0.371290    0.759599     0.004307
PD3623   PD        0.252222    0.416840    0.717816     0.005394
PD3624   PD        0.283240    0.378412    0.715352     0.005394
NI3625   NI        0.270164    0.396198    0.755308     0.004307
NI3626   NI        0.319280    0.396299    0.759080     0.004307
PD3627   PD        0.319420    0.430914    0.695449     0.005394
NI3628   NI        0.397440    0.396515    0.729666     0.004307
PD3629   PD        0.368202    0.408379    0.755450     0.005394
PD3630   PD        0.373005    0.383790    0.740439     0.005394
PD3631   PD        0.400021    0.417737    0.720196     0.005394
PD3632   PD        0.413817    0.396166    0.762255     0.005394
PD3633   PD        0.416348    0.406368    0.762809     0.005394
PD3634   PD        0.455458    0.377748    0.752726     0.005394
PD3635   PD        0.481405    0.402302    0.721485     0.005394
NI3636   NI        0.506509    0.355414    0.727236     0.004307
PD3637   PD        0.514952    0.464923    0.694147     0.005394
PD3638   PD        0.525877    0.347068    0.716772     0.005394
NI3639   NI        0.561288    0.431490    0.723846     0.004307
NI3640   NI        0.585336    0.390256    0.734186     0.004307
NI3641   NI        0.587479    0.401027    0.723424     0.004307
NI3642   NI        0.588726    0.376162    0.755271     0.004307
PD3643   PD        0.606132    0.425571    0.706464     0.005394
PD3644   PD        0.624093    0.378352    0.723488     0.005394
NI3645   NI        0.626285    0.429942    0.720819     0.004307
NI3646   NI        0.655173    0.384892    0.767778     0.004307
NI3647   NI        0.664340    0.401906    0.724383     0.004307
NI3648   NI        0.661195    0.348115    0.711796     0.004307
NI3649   NI        0.709152    0.440516    0.687599     0.004307
NI3650   NI        0.732758    0.431601    0.727370     0.004307
NI3651   NI        0.055696    0.484051    0.717912     0.004307
NI3652   NI        0.146881    0.441291    0.737605     0.004307
NI3653   NI        0.159258    0.455893    0.748045     0.004307
NI3654   NI        0.195475    0.437556    0.776184     0.004307
NI3655   NI        0.186280    0.486231    0.722900     0.004307
NI3656   NI        0.211448    0.432930    0.706067     0.004307
NI3657   NI        0.213766    0.455368    0.762233     0.004307
NI3658   NI        0.274847    0.459086    0.730136     0.004307
NI3659   NI        0.261254    0.474703    0.734691     0.004307
PD3660   PD        0.286327    0.449569    0.717163     0.005394
NI3661   NI        0.280710    0.483484    0.750585     0.004307
NI3662   NI        0.342708    0.460159    0.751159     0.004307
NI3663   NI        0.303777    0.490704    0.753536     0.004307
PD3664   PD        0.354755    0.449515    0.717672     0.005394
PD3665   PD        0.355206    0.491524    0.750058     0.005394
PD3666   PD        0.423948    0.442582    0.764815     0.005394
PD3667   PD        0.390233    0.480366    0.718735     0.005394
PD3668   PD        0.422963    0.445092    0.733565     0.005394
PD3669   PD        0.420967    0.488477    0.751367     0.005394
PD3670   PD        0.481148    0.479984    0.754658     0.005394
PD3671   PD        0.455428    0.481700    0.716439     0.005394
PD3672   PD        0.491405    0.468271    0.690073     0.005394
PD3673   PD        0.470071    0.461893    0.732968     0.005394
PD3674   PD        0.538679    0.442474    0.770620     0.005394
PD3675   PD        0.535248    0.504560    0.713651     0.005394
PD3676   PD        0.548283    0.455727    0.726187     0.005394
NI3677   NI        0.559824    0.480128    0.789745     0.004307
NI3678   NI        0.576133    0.484282    0.745128     0.004307
PD3679   PD        0.627163    0.500784    0.729358     0.005394
NI3680   NI        0.648588    0.446817    0.718534     0.004307
NI3681   NI        0.629698    0.518591    0.782911     0.004307
NI3682   NI        0.655387    0.467637    0.763192     0.004307
NI3683   NI        0.672526    0.487736    0.724177     0.004307
NI3684   NI        0.732672    0.443774    0.700555     0.004307
NI3685   NI        0.720097    0.479240    0.736970     0.004307
NI3686   NI        0.707439    0.483307    0.690555     0.004307
NI3687   NI        0.134184    0.486453    0.723726     0.004307
NI3688   NI        0.186710    0.524480    0.788758     0.004307
NI3689   NI        0.172166    0.553991    0.663838     0.004307
NI3690   NI        0.215219    0.522700    0.716804     0.004307
NI3691   NI        0.254186    0.501751    0.736703     0.004307
PD3692   PD        0.255131    0.523076    0.738896     0.005394
PD3693   PD        0.294130    0.519733    0.716350     0.005394
NI3694   NI        0.294575    0.543797    0.726030     0.004307
NI3695   NI        0.264659    0.517861    0.753567     0.004307
PD3696   PD        0.339333    0.500404    0.727081     0.005394
NI3697   NI        0.300110    0.525099    0.720729     0.004307
PD3698   PD        0.359177    0.516699    0.719138     0.005394
NI3699   NI        0.356275    0.605319    0.757389     0.004307
PD3700   PD        0.392274    0.516253    0.752735     0.005394
PD3701   PD        0.399169    0.569543    0.711569     0.005394
PD3702   PD        0.406204    0.524189    0.717603     0.005394
PD3703   PD        0.460810    0.577004    0.742412     0.005394
PD3704   PD        0.455069    0.519247    0.765431     0.005394
NI3705   NI        0.479068    0.581150    0.696556     0.004307
PD3706   PD        0.494957    0.547363    0.752585     0.005394
NI3707   NI        0.485932    0.556529    0.773953     0.004307
PD3708   PD        0.529176    0.485385    0.752612     0.005394
PD3709   PD        0.497911    0.521795    0.753926     0.005394
NI3710   NI        0.590695    0.527334    0.751085     0.004307
NI3711   NI        0.617827    0.546896    0.744807     0.004307
NI3712   NI        0.590810    0.501845    0.761178     0.004307
NI3713   NI        0.621600    0.509873    0.667738     0.004307
PD3714   PD        0.642907    0.519995    0.702928     0.005394
NI3715   NI        0.680783    0.584047    0.743461     0.004307
NI3716   NI        0.667919    0.551127    0.775962     0.004307
PD3717   PD        0.632779    0.545953    0.743548     0.005394
NI3718   NI        0.709632    0.546190    0.748195     0.004307
NI3719   NI        0.137571    0.552997    0.729592     0.004307
NI3720   NI        0.191379    0.581126    0.764400     0.004307
NI3721   NI        0.168095    0.623633    0.762465     0.004307
NI3722   NI        0.194532    0.532113    0.725187     0.004307
NI3723   NI        0.194874    0.661259    0.749703     0.004307
NI3724   NI        0.258992    0.590609    0.748433     0.004307
NI3725   NI        0.225695    0.590263    0.713405     0.004307
NI3726   NI        0.283737    0.601926    0.708577     0.004307
NI3727   NI        0.321110    0.665983    0.741522     0.004307
NI3728   NI        0.299290    0.569464    0.763850     0.004307
PD3729   PD        0.326197    0.622212    0.723992     0.005394
PD3730   PD        0.351619    0.582593    0.715982     0.005394
NI3731   NI        0.367556    0.621707    0.744676     0.004307
PD3732   PD        0.394196    0.582002    0.757629     0.005394
NI3733   NI        0.357516    0.635053    0.754780     0.004307
PD3734   PD        0.429095    0.603835    0.732297     0.005394
NI3735   NI        0.421211    0.618856    0.775032     0.004307
NI3736   NI        0.508022    0.577993    0.740125     0.004307
PD3737   PD        0.447027    0.642396    0.742736     0.005394
NI3738   NI        0.505005    0.538129    0.734628     0.004307
PD3739   PD        0.485318    0.616717    0.756446     0.005394
NI3740   NI        0.532964    0.620843    0.744403     0.004307
NI3741   NI        0.538190    0.667830    0.754458     0.004307
PD3742   PD        0.536146    0.611192    0.719745     0.005394
NI3743   NI        0.567508    0.612261    0.754185     0.004307
NI3744   NI        0.591387    0.573521    0.738792     0.004307
NI3745   NI        0.623277    0.625189    0.712357     0.004307
NI3746   NI        0.581444    0.599504    0.709494     0.004307
NI3747   NI        0.617354    0.612217    0.757524     0.004307
NI3748   NI        0.580348    0.599825    0.777849     0.004307
NI3749   NI        0.631737    0.622804    0.712046     0.004307
NI3750   NI        0.703370    0.534550    0.748509     0.004307
NI3751   NI        0.209892    0.668614    0.706302     0.004307
NI3752   NI        0.251497    0.636206    0.774289     0.004307
NI3753   NI        0.258700    0.724787    0.683009     0.004307
NI3754   NI        0.277273    0.645840    0.734949     0.004307
NI3755   NI        0.292600    0.704259    0.743044     0.004307
NI3756   NI        0.319862    0.665564    0.751306     0.004307
NI3757   NI        0.318899    0.671329    0.722319     0.004307
NI3758   NI        0.363266    0.677472    0.735512     0.004307
NI3759   NI        0.361723    0.719018    0.742261     0.004307
NI3760   NI        0.403032    0.652682    0.747790     0.004307
NI3761   NI        0.393199    0.694326    0.687239     0.004307
NI3762   NI        0.401074    0.658341    0.708930     0.004307
NI3763   NI        0.440272    0.703763    0.753633     0.004307
PD3764   PD        0.470756    0.612394    0.711740     0.005394
NI3765   NI        0.468806    0.703141    0.725317     0.004307
NI3766   NI        0.515090    0.689039    0.728802     0.004307
NI3767   NI        0.491034    0.711689    0.748444     0.004307
NI3768   NI        0.485096    0.653452    0.769861     0.004307
NI3769   NI        0.533293    0.704461    0.724305     0.004307
NI3770   NI        0.561617    0.649996    0.721594     0.004307
NI3771   NI        0.556525    0.701305    0.748279     0.004307
NI3772   NI        0.583308    0.682233    0.767018     0.004307
NI3773   NI        0.613516    0.673540    0.727812     0.004307
NI3774   NI        0.681420    0.675987    0.680910     0.004307
NI3775   NI        0.310825    0.711831    0.696492     0.004307
NI3776   NI        0.314157    0.713812    0.745266     0.004307
NI3777   NI        0.363084    0.724410    0.709101     0.004307
NI3778   NI        0.381036    0.755261    0.717627     0.004307
NI3779   NI        0.444231    0.724933    0.752466     0.004307
NI3780   NI        0.448268    0.728957    0.760531     0.004307
NI3781   NI        0.457903    0.722056    0.713116     0.004307
NI3782   NI        0.502252    0.737525    0.726810     0.004307
NI3783   NI        0.572568    0.691443    0.721619     0.004307
NI3784   NI        0.376326    0.175380    0.784916     0.004307
NI3785   NI        0.478063    0.210833    0.792249     0.004307
NI3786   NI        0.317770    0.274505    0.775211     0.004307
NI3787   NI        0.287187    0.262787    0.809060     0.004307
NI3788   NI        0.355977    0.216119    0.800035     0.004307
NI3789   NI        0.350986    0.271677    0.803399     0.004307
NI3790   NI        0.423149    0.300865    0.778479     0.004307
NI3791   NI        0.394633    0.281933    0.784123     0.004307
NI3792   NI        0.396337    0.278759    0.812365     0.004307
NI3793   NI        0.480908    0.308148    0.742528     0.004307
NI3794   NI        0.522141    0.273725    0.782650     0.004307
NI3795   NI        0.467413    0.291432    0.789453     0.004307
NI3796   NI        0.484406    0.308398    0.792075     0.004307
NI3797   NI        0.596273    0.291360    0.808117     0.004307
NI3798   NI        0.272833    0.371327    0.747855     0.004307
NI3799   NI        0.288014    0.320546    0.761628     0.004307
NI3800   NI        0.297136    0.355842    0.825917     0.004307
NI3801   NI        0.315461    0.299877    0.816918     0.004307
NI3802   NI        0.312871    0.338762    0.797719     0.004307
NI3803   NI        0.359691    0.315739    0.787463     0.004307
PD3804   PD        0.380992    0.373275    0.788033     0.005394
NI3805   NI        0.381635    0.333370    0.815133     0.004307
NI3806   NI        0.412429    0.327224    0.786757     0.004307
NI3807   NI        0.439952    0.290151    0.794124     0.004307
NI3808   NI        0.426175    0.350252    0.825760     0.004307
NI3809   NI        0.457371    0.311006    0.832079     0.004307
NI3810   NI        0.459584    0.347013    0.758206     0.004307
NI3811   NI        0.494412    0.288431    0.750292     0.004307
NI3812   NI        0.498773    0.336554    0.829442     0.004307
NI3813   NI        0.532769    0.319188    0.797435     0.004307
NI3814   NI        0.521365    0.339148    0.786519     0.004307
NI3815   NI        0.561856    0.302237    0.776668     0.004307
NI3816   NI        0.580429    0.342834    0.759985     0.004307
NI3817   NI        0.667891    0.379901    0.725436     0.004307
NI3818   NI        0.201374    0.430426    0.801221     0.004307
NI3819   NI        0.239460    0.372682    0.804535     0.004307
NI3820   NI        0.281620    0.435809    0.770063     0.004307
NI3821   NI        0.220791    0.389278    0.789126     0.004307
NI3822   NI        0.286455    0.380665    0.787928     0.004307
NI3823   NI        0.273108    0.383587    0.855472     0.004307
NI3824   NI        0.305939    0.368461    0.825495     0.004307
PD3825   PD        0.339058    0.405503    0.717288     0.005394
NI3826   NI        0.386379    0.377053    0.835926     0.004307
NI3827   NI        0.318716    0.452113    0.819156     0.004307
NI3828   NI        0.381504    0.370451    0.832328     0.004307
NI3829   NI        0.386834    0.419435    0.785113     0.004307
NI3830   NI        0.437223    0.367543    0.795188     0.004307
NI3831   NI        0.431057    0.394767    0.830374     0.004307
NI3832   NI        0.447796    0.385438    0.836753     0.004307
PD3833   PD        0.463725    0.418488    0.804376     0.005394
PD3834   PD        0.493633    0.396028    0.774913     0.005394
NI3835   NI        0.509281    0.409556    0.788376     0.004307
NI3836   NI        0.541877    0.359915    0.761426     0.004307
NI3837   NI        0.537547    0.380326    0.785500     0.004307
NI3838   NI        0.541086    0.397012    0.786159     0.004307
NI3839   NI        0.592403    0.418736    0.806486     0.004307
NI3840   NI        0.583201    0.379203    0.802599     0.004307
NI3841   NI        0.614847    0.418715    0.802643     0.004307
NI3842   NI        0.621799    0.379710    0.776271     0.004307
NI3843   NI        0.627924    0.419203    0.749251     0.004307
NI3844   NI        0.192413    0.488040    0.820316     0.004307
NI3845   NI        0.237759    0.414939    0.775945     0.004307
NI3846   NI        0.269032    0.457180    0.812689     0.004307
NI3847   NI        0.240119    0.467145    0.800883     0.004307
NI3848   NI        0.268625    0.457344    0.813992     0.004307
NI3849   NI        0.305196    0.460841    0.846312     0.004307
NI3850   NI        0.311273    0.436636    0.810449     0.004307
PD3851   PD        0.319808    0.464463    0.772407     0.005394
NI3852   NI        0.341067    0.433319    0.778920     0.004307
NI3853   NI        0.363583    0.520994    0.803595     0.004307
NI3854   NI        0.377268    0.452308    0.821380     0.004307
PD3855   PD        0.388754    0.483926    0.786882     0.005394
NI3856   NI        0.418054    0.427903    0.798783     0.004307
NI3857   NI        0.388902    0.495667    0.809905     0.004307
NI3858   NI        0.447962    0.457410    0.825974     0.004307
PD3859   PD        0.460680    0.514777    0.752641     0.005394
NI3860   NI        0.509980    0.418397    0.790506     0.004307
NI3861   NI        0.491906    0.441996    0.816781     0.004307
NI3862   NI        0.537269    0.459294    0.810160     0.004307
NI3863   NI        0.511435    0.475832    0.753014     0.004307
NI3864   NI        0.541863    0.439558    0.817803     0.004307
NI3865   NI        0.552706    0.488981    0.860928     0.004307
NI3866   NI        0.577924    0.437051    0.828109     0.004307
NI3867   NI        0.563752    0.439855    0.774706     0.004307
NI3868   NI        0.641286    0.381148    0.766781     0.004307
NI3869   NI        0.624765    0.511499    0.777351     0.004307
NI3870   NI        0.204282    0.509065    0.830285     0.004307
NI3871   NI        0.256766    0.539415    0.804312     0.004307
NI3872   NI        0.292266    0.611396    0.774230     0.004307
NI3873   NI        0.291828    0.499474    0.742759     0.004307
NI3874   NI        0.346945    0.525511    0.763903     0.004307
NI3875   NI        0.326496    0.498365    0.828094     0.004307
NI3876   NI        0.326335    0.565405    0.778115     0.004307
NI3877   NI        0.372201    0.527480    0.777999     0.004307
NI3878   NI        0.381386    0.562397    0.837657     0.004307
NI3879   NI        0.391372    0.517396    0.820551     0.004307
NI3880   NI        0.443778    0.538853    0.844651     0.004307
PD3881   PD        0.427037    0.511639    0.786821     0.005394
NI3882   NI        0.436953    0.510496    0.809567     0.004307
NI3883   NI        0.433108    0.532547    0.806121     0.004307
NI3884   NI        0.436178    0.559368    0.786906     0.004307
NI3885   NI        0.500503    0.547834    0.795359     0.004307
NI3886   NI        0.462073    0.547534    0.786806     0.004307
NI3887   NI        0.515023    0.499448    0.793182     0.004307
NI3888   NI        0.508356    0.538908    0.774407     0.004307
NI3889   NI        0.597315    0.518585    0.818601     0.004307
NI3890   NI        0.553748    0.540308    0.812182     0.004307
NI3891   NI        0.632107    0.529623    0.850580     0.004307
NI3892   NI        0.586496    0.519753    0.801641     0.004307
NI3893   NI        0.643308    0.537892    0.785235     0.004307
NI3894   NI        0.251111    0.625565    0.765479     0.004307
NI3895   NI        0.278481    0.580670    0.807316     0.004307
NI3896   NI        0.294597    0.600748    0.846663     0.004307
NI3897   NI        0.334021    0.634190    0.778679     0.004307
PD3898   PD        0.297705    0.501199    0.749986     0.005394
NI3899   NI        0.312751    0.637027    0.821848     0.004307
NI3900   NI        0.400426    0.577081    0.833632     0.004307
NI3901   NI        0.376952    0.611539    0.790706     0.004307
NI3902   NI        0.430327    0.596909    0.766068     0.004307
NI3903   NI        0.455674    0.685869    0.852038     0.004307
NI3904   NI        0.440149    0.578361    0.795614     0.004307
NI3905   NI        0.459230    0.622892    0.795186     0.004307
NI3906   NI        0.526774    0.580204    0.821204     0.004307
NI3907   NI        0.487196    0.623947    0.823974     0.004307
NI3908   NI        0.534996    0.630949    0.830330     0.004307
NI3909   NI        0.501334    0.586701    0.768228     0.004307
NI3910   NI        0.568326    0.575817    0.783148     0.004307
NI3911   NI        0.603719    0.611211    0.784853     0.004307
NI3912   NI        0.410965    0.613545    0.725599     0.004307
NI3913   NI        0.416308    0.699215    0.781928     0.004307
NI3914   NI        0.415218    0.645491    0.792995     0.004307
NI3915   NI        0.469578    0.681551    0.806226     0.004307
NI3916   NI        0.491622    0.666768    0.768834     0.004307
NI3917   NI        0.386888    0.450071    0.821871     0.004307
NI3918   NI        0.427309    0.385936    0.825751     0.004307
NI3919   NI        0.443605    0.443803    0.896533     0.004307
NI3920   NI        0.363919    0.443658    0.870332     0.004307
NI3921   NI        0.386566    0.483803    0.855263     0.004307
NI3922   NI        0.435968    0.449740    0.875282     0.004307
NI3923   NI        0.430521    0.491407    0.852150     0.004307
NI3924   NI        0.516478    0.458638    0.855423     0.004307
NI3925   NI        0.424306    0.515905    0.856120     0.004307
