data_00001
_audit_creation_method   'DISCUS'

_data_chemical_name_common 'Au.cell: Pearson 85'

_cell_length_a             57.1046
_cell_length_b             53.0257
_cell_length_c             53.0257
_cell_angle_alpha     90.0000
_cell_angle_beta      90.0000
_cell_angle_gamma     90.0000

_symmetry_space_group_name_H-M   'P1              '

loop_
_atom_site_label
_atom_site_symbol
_atom_site_fract_x
_atom_site_fract_y
_atom_site_fract_z
_atom_site_u_iso_or_equiv
PT1   PT        0.357186    0.269525    0.037005     0.004505
PT2   PT        0.427674    0.267783    0.037279     0.004505
PT3   PT        0.501276    0.267490    0.037565     0.004505
PT4   PT        0.286538    0.347106    0.039946     0.004505
PT5   PT        0.322666    0.309671    0.038947     0.004505
PT6   PT        0.358007    0.348002    0.038952     0.004505
PT7   PT        0.391876    0.306516    0.037911     0.004505
PT8   PT        0.427603    0.345349    0.037716     0.004505
PT9   PT        0.465504    0.304840    0.037595     0.004505
PT10   PT        0.500111    0.345500    0.036158     0.004505
PT11   PT        0.535621    0.308127    0.035936     0.004505
PT12   PT        0.573612    0.345410    0.036311     0.004505
PT13   PT        0.253175    0.386016    0.037840     0.004505
PT14   PT        0.287300    0.423403    0.039875     0.004505
AU15   AU        0.321301    0.384150    0.040188     0.007504
AU16   AU        0.357074    0.425113    0.038983     0.007504
PT17   PT        0.392036    0.386138    0.040087     0.004505
PT18   PT        0.393762    0.423933    0.004925     0.004505
PT19   PT        0.428855    0.387610    0.004171     0.004505
PT20   PT        0.428576    0.423092    0.040567     0.004505
PT21   PT        0.464888    0.384467    0.038472     0.004505
PT22   PT        0.462710    0.423656    0.003512     0.004505
AU23   AU        0.498560    0.422337    0.037416     0.007504
AU24   AU        0.537687    0.381832    0.036966     0.007504
AU25   AU        0.571352    0.422717    0.036592     0.007504
AU26   AU        0.607729    0.383828    0.036988     0.007504
PT27   PT        0.250796    0.464542    0.038711     0.004505
PT28   PT        0.284160    0.500713    0.038516     0.004505
PT29   PT        0.323164    0.461491    0.037788     0.004505
AU30   AU        0.359630    0.461886    0.002793     0.007504
PT31   PT        0.357962    0.501734    0.036737     0.004505
PT32   PT        0.395901    0.461979    0.040467     0.004505
PT33   PT        0.395098    0.497474    0.001916     0.004505
PT34   PT        0.429679    0.459401    0.004603     0.004505
AU35   AU        0.430479    0.499178    0.037845     0.007504
AU36   AU        0.464066    0.460153    0.037724     0.007504
PT37   PT        0.462543    0.496845    0.001322     0.004505
AU38   AU        0.497985    0.461591    0.002949     0.007504
AU39   AU        0.498556    0.501120    0.035791     0.007504
PT40   PT        0.536383    0.462865    0.036930     0.004505
AU41   AU        0.573686    0.498437    0.036903     0.007504
PT42   PT        0.607471    0.460112    0.037003     0.004505
AU43   AU        0.251117    0.539851    0.036196     0.007504
PT44   PT        0.285780    0.577636    0.038716     0.004505
PT45   PT        0.320358    0.539232    0.036647     0.004505
PT46   PT        0.354552    0.577281    0.036386     0.004505
PT47   PT        0.391946    0.538522    0.035022     0.004505
PT48   PT        0.429546    0.536345    0.000769     0.004505
AU49   AU        0.428290    0.578671    0.037291     0.007504
AU50   AU        0.464555    0.539074    0.037819     0.007504
AU51   AU        0.499958    0.577030    0.038236     0.007504
PT52   PT        0.534998    0.540361    0.037991     0.004505
PT53   PT        0.572264    0.576803    0.036591     0.004505
AU54   AU        0.606902    0.536280    0.037001     0.007504
PT55   PT        0.320834    0.616364    0.036365     0.004505
PT56   PT        0.355598    0.654034    0.036006     0.004505
PT57   PT        0.391422    0.617403    0.035613     0.004505
PT58   PT        0.428648    0.657093    0.036874     0.004505
AU59   AU        0.463837    0.617352    0.035731     0.007504
AU60   AU        0.501871    0.652882    0.036613     0.007504
PT61   PT        0.536042    0.614344    0.037082     0.004505
PT62   PT        0.284147    0.191967    0.114278     0.004505
PT63   PT        0.358290    0.192229    0.110100     0.004505
PT64   PT        0.390919    0.155799    0.111711     0.004505
PT65   PT        0.393374    0.190828    0.073410     0.004505
PT66   PT        0.429760    0.190457    0.111924     0.004505
PT67   PT        0.462474    0.153381    0.111679     0.004505
PT68   PT        0.462406    0.192537    0.073615     0.004505
PT69   PT        0.498794    0.192354    0.110949     0.004505
PT70   PT        0.570613    0.193095    0.111212     0.004505
PT71   PT        0.189091    0.251562    0.103942     0.004505
PT72   PT        0.249998    0.228603    0.111844     0.004505
PT73   PT        0.227721    0.269506    0.081158     0.004505
PT74   PT        0.285377    0.268200    0.110889     0.004505
AU75   AU        0.321210    0.229226    0.113065     0.007504
AU76   AU        0.323352    0.268975    0.073464     0.007504
AU77   AU        0.357190    0.231433    0.076009     0.007504
PT78   PT        0.357601    0.268268    0.111062     0.004505
PT79   PT        0.393535    0.228567    0.110888     0.004505
PT80   PT        0.392704    0.268085    0.073257     0.004505
PT81   PT        0.427300    0.230452    0.072148     0.004505
AU82   AU        0.429665    0.267844    0.109552     0.007504
PT83   PT        0.464193    0.229222    0.110461     0.004505
AU84   AU        0.464854    0.267160    0.072992     0.007504
PT85   PT        0.500302    0.230258    0.074436     0.004505
AU86   AU        0.499806    0.266700    0.110347     0.007504
PT87   PT        0.534417    0.229906    0.111479     0.004505
AU88   AU        0.534913    0.268642    0.073959     0.007504
PT89   PT        0.570981    0.268047    0.110458     0.004505
PT90   PT        0.608268    0.229317    0.114575     0.004505
AU91   AU        0.642137    0.307432    0.074732     0.007504
PT92   PT        0.642434    0.268414    0.110844     0.004505
PT93   PT        0.175362    0.303204    0.112970     0.004505
PT94   PT        0.213951    0.351667    0.110316     0.004505
PT95   PT        0.250361    0.307742    0.112054     0.004505
PT96   PT        0.251147    0.348722    0.075587     0.004505
AU97   AU        0.287142    0.309467    0.073932     0.007504
AU98   AU        0.286698    0.347455    0.111997     0.007504
AU99   AU        0.321236    0.306641    0.109547     0.007504
PT100   PT        0.322292    0.347317    0.074997     0.004505
AU101   AU        0.356721    0.307731    0.074394     0.007504
AU102   AU        0.357708    0.344412    0.112174     0.007504
PT103   PT        0.392242    0.305897    0.110643     0.004505
PT104   PT        0.393008    0.344680    0.073623     0.004505
PT105   PT        0.428697    0.305221    0.073799     0.004505
PT106   PT        0.429476    0.343129    0.109742     0.004505
AU107   AU        0.466281    0.304738    0.109298     0.007504
PT108   PT        0.464231    0.346343    0.071468     0.004505
AU109   AU        0.500967    0.305698    0.072414     0.007504
PT110   PT        0.501799    0.344049    0.109377     0.004505
AU111   AU        0.536307    0.306052    0.110432     0.007504
PT112   PT        0.535956    0.344493    0.074019     0.004505
AU113   AU        0.571097    0.307729    0.074675     0.007504
PT114   PT        0.572439    0.344586    0.110837     0.004505
PT115   PT        0.606767    0.306396    0.110735     0.004505
PT116   PT        0.607968    0.343807    0.073510     0.004505
PT117   PT        0.641791    0.344809    0.112280     0.004505
PT118   PT        0.677682    0.305312    0.112638     0.004505
AU119   AU        0.143363    0.426258    0.113388     0.007504
AU120   AU        0.178634    0.388269    0.112696     0.007504
PT121   PT        0.179952    0.425537    0.076243     0.004505
PT122   PT        0.215035    0.388534    0.073061     0.004505
PT123   PT        0.214722    0.423365    0.113688     0.004505
PT124   PT        0.249562    0.386496    0.111922     0.004505
PT125   PT        0.251689    0.424352    0.075268     0.004505
AU126   AU        0.285624    0.386534    0.076998     0.007504
AU127   AU        0.285735    0.424873    0.111270     0.007504
AU128   AU        0.321710    0.386018    0.112964     0.007504
AU129   AU        0.321537    0.423659    0.075087     0.007504
PT130   PT        0.356696    0.386040    0.075427     0.004505
PT131   PT        0.355376    0.424432    0.111252     0.004505
PT132   PT        0.392825    0.382933    0.111077     0.004505
AU133   AU        0.391504    0.423454    0.076430     0.007504
AU134   AU        0.429509    0.383089    0.074521     0.007504
PT135   PT        0.427891    0.420079    0.110740     0.004505
PT136   PT        0.465790    0.382190    0.110427     0.004505
PT137   PT        0.465101    0.421118    0.075122     0.004505
AU138   AU        0.500020    0.382948    0.074059     0.007504
AU139   AU        0.501087    0.420484    0.110756     0.007504
AU140   AU        0.538012    0.383476    0.110221     0.007504
AU141   AU        0.536789    0.420923    0.071810     0.007504
PT142   PT        0.572048    0.381922    0.072883     0.004505
AU143   AU        0.572842    0.423712    0.109745     0.007504
PT144   PT        0.606244    0.384981    0.110220     0.004505
PT145   PT        0.606867    0.423006    0.072957     0.004505
PT146   PT        0.643081    0.381763    0.074501     0.004505
AU147   AU        0.643127    0.423262    0.109326     0.007504
PT148   PT        0.678440    0.385783    0.112846     0.004505
PT149   PT        0.678354    0.423902    0.073535     0.004505
PT150   PT        0.712899    0.422004    0.112016     0.004505
PT151   PT        0.141959    0.501882    0.111498     0.004505
AU152   AU        0.178248    0.462887    0.111819     0.007504
PT153   PT        0.139847    0.538416    0.073355     0.004505
PT154   PT        0.215340    0.460750    0.075712     0.004505
AU155   AU        0.213066    0.500405    0.112085     0.007504
PT156   PT        0.249373    0.463028    0.111661     0.004505
AU157   AU        0.249329    0.499458    0.074716     0.007504
PT158   PT        0.286274    0.461544    0.074260     0.004505
AU159   AU        0.286240    0.500615    0.110360     0.007504
PT160   PT        0.320713    0.463565    0.109741     0.004505
AU161   AU        0.320576    0.500466    0.071854     0.007504
AU162   AU        0.358053    0.464492    0.073362     0.007504
PT163   PT        0.354379    0.503449    0.109434     0.004505
AU164   AU        0.393047    0.463003    0.111186     0.007504
AU165   AU        0.392713    0.502573    0.071937     0.007504
AU166   AU        0.430330    0.461420    0.075091     0.007504
AU167   AU        0.428754    0.502505    0.109873     0.007504
PT168   PT        0.467142    0.462176    0.109896     0.004505
PT169   PT        0.464150    0.500384    0.073108     0.004505
PT170   PT        0.501027    0.460491    0.073967     0.004505
AU171   AU        0.501153    0.500341    0.110518     0.007504
PT172   PT        0.539100    0.459105    0.109771     0.004505
AU173   AU        0.535164    0.500453    0.072241     0.007504
PT174   PT        0.571253    0.461634    0.072940     0.004505
AU175   AU        0.572961    0.498327    0.109603     0.007504
AU176   AU        0.608098    0.461002    0.109429     0.007504
PT177   PT        0.606270    0.498709    0.073687     0.004505
PT178   PT        0.642752    0.462115    0.073280     0.004505
PT179   PT        0.643409    0.497106    0.109017     0.004505
AU180   AU        0.679573    0.461771    0.111425     0.007504
PT181   PT        0.679982    0.496990    0.073707     0.004505
AU182   AU        0.714082    0.498999    0.111030     0.007504
PT183   PT        0.175146    0.537858    0.112544     0.004505
PT184   PT        0.214140    0.538682    0.074008     0.004505
PT185   PT        0.214730    0.578664    0.112256     0.004505
AU186   AU        0.248532    0.539118    0.111363     0.007504
PT187   PT        0.250464    0.577065    0.074338     0.004505
PT188   PT        0.285727    0.539319    0.074714     0.004505
AU189   AU        0.285667    0.579441    0.109970     0.007504
AU190   AU        0.319589    0.539218    0.111169     0.007504
AU191   AU        0.320416    0.578059    0.073942     0.007504
PT192   PT        0.353401    0.539356    0.072667     0.004505
AU193   AU        0.356507    0.577517    0.109395     0.007504
PT194   PT        0.391900    0.539746    0.109279     0.004505
PT195   PT        0.392614    0.579219    0.070955     0.004505
PT196   PT        0.428892    0.542096    0.073663     0.004505
PT197   PT        0.428697    0.579702    0.109970     0.004505
PT198   PT        0.463479    0.541055    0.111559     0.004505
PT199   PT        0.464464    0.578147    0.072865     0.004505
PT200   PT        0.500502    0.537676    0.074357     0.004505
AU201   AU        0.500785    0.579533    0.110207     0.007504
PT202   PT        0.536672    0.538121    0.110918     0.004505
PT203   PT        0.535782    0.577310    0.073589     0.004505
AU204   AU        0.571878    0.538255    0.073608     0.007504
AU205   AU        0.572062    0.577422    0.111246     0.007504
PT206   PT        0.607170    0.535296    0.110066     0.004505
AU207   AU        0.606226    0.574548    0.073510     0.007504
PT208   PT        0.643200    0.535101    0.073220     0.004505
PT209   PT        0.643338    0.575695    0.110355     0.004505
PT210   PT        0.678310    0.534896    0.110177     0.004505
AU211   AU        0.141328    0.574901    0.112095     0.007504
PT212   PT        0.215576    0.653556    0.111504     0.004505
PT213   PT        0.250370    0.616870    0.112753     0.004505
PT214   PT        0.249900    0.654842    0.074289     0.004505
PT215   PT        0.285802    0.617176    0.073899     0.004505
PT216   PT        0.285644    0.654685    0.112935     0.004505
AU217   AU        0.320092    0.617134    0.109726     0.007504
PT218   PT        0.321373    0.654748    0.072825     0.004505
PT219   PT        0.355918    0.616579    0.073068     0.004505
AU220   AU        0.355817    0.654358    0.110080     0.007504
AU221   AU        0.393283    0.616610    0.110340     0.007504
PT222   PT        0.391611    0.654720    0.073705     0.004505
PT223   PT        0.428053    0.617048    0.073030     0.004505
PT224   PT        0.427496    0.654346    0.109927     0.004505
PT225   PT        0.464135    0.617639    0.110494     0.004505
PT226   PT        0.463963    0.653852    0.073906     0.004505
AU227   AU        0.499092    0.615307    0.072278     0.007504
PT228   PT        0.499167    0.655611    0.110432     0.004505
AU229   AU        0.535618    0.616235    0.110595     0.007504
AU230   AU        0.535535    0.654907    0.074036     0.007504
PT231   PT        0.570288    0.615944    0.075488     0.004505
PT232   PT        0.571767    0.653474    0.111023     0.004505
PT233   PT        0.605291    0.614851    0.111183     0.004505
AU234   AU        0.607050    0.654711    0.074546     0.007504
AU235   AU        0.643262    0.653890    0.113084     0.007504
AU236   AU        0.678784    0.615854    0.111870     0.007504
AU237   AU        0.251007    0.692688    0.112382     0.007504
PT238   PT        0.285330    0.729604    0.112450     0.004505
AU239   AU        0.321607    0.692453    0.111627     0.007504
AU240   AU        0.356742    0.693353    0.073204     0.007504
PT241   PT        0.358063    0.729928    0.110344     0.004505
AU242   AU        0.393490    0.696153    0.111429     0.007504
AU243   AU        0.392996    0.729855    0.074507     0.007504
PT244   PT        0.427833    0.693564    0.073424     0.004505
PT245   PT        0.429242    0.733366    0.112094     0.004505
PT246   PT        0.462595    0.693678    0.109497     0.004505
PT247   PT        0.463298    0.729772    0.071867     0.004505
PT248   PT        0.499079    0.692529    0.072842     0.004505
PT249   PT        0.496949    0.730467    0.109054     0.004505
PT250   PT        0.533965    0.694517    0.110992     0.004505
PT251   PT        0.571565    0.732121    0.113166     0.004505
PT252   PT        0.606142    0.691542    0.111338     0.004505
PT253   PT        0.393963    0.768955    0.111782     0.004505
AU254   AU        0.462706    0.768871    0.111689     0.007504
PT255   PT        0.285449    0.115927    0.190019     0.004505
PT256   PT        0.357011    0.117163    0.189317     0.004505
PT257   PT        0.391126    0.078992    0.187898     0.004505
PT258   PT        0.392153    0.116855    0.150110     0.004505
PT259   PT        0.428338    0.116375    0.188033     0.004505
PT260   PT        0.464800    0.078100    0.188319     0.004505
PT261   PT        0.462451    0.115636    0.150328     0.004505
AU262   AU        0.497385    0.115585    0.187169     0.007504
AU263   AU        0.571388    0.116238    0.187685     0.007504
PT264   PT        0.211177    0.191266    0.188802     0.004505
PT265   PT        0.248031    0.153647    0.188433     0.004505
AU266   AU        0.247407    0.192764    0.149754     0.007504
PT267   PT        0.283773    0.155575    0.153081     0.004505
AU268   AU        0.284517    0.193080    0.186987     0.007504
AU269   AU        0.320415    0.153215    0.188195     0.007504
AU270   AU        0.320571    0.192290    0.150063     0.007504
AU271   AU        0.355513    0.153740    0.150541     0.007504
PT272   PT        0.357644    0.191703    0.186012     0.004505
PT273   PT        0.393940    0.153093    0.186887     0.004505
PT274   PT        0.392904    0.191437    0.149237     0.004505
PT275   PT        0.427746    0.153862    0.149002     0.004505
AU276   AU        0.428325    0.192125    0.185625     0.007504
AU277   AU        0.463600    0.153760    0.186428     0.007504
PT278   PT        0.464165    0.191706    0.148899     0.004505
PT279   PT        0.500468    0.154345    0.149768     0.004505
PT280   PT        0.499220    0.189763    0.186637     0.004505
AU281   AU        0.537153    0.153857    0.187799     0.007504
PT282   PT        0.534988    0.191894    0.148794     0.004505
PT283   PT        0.571884    0.154805    0.149506     0.004505
AU284   AU        0.572961    0.192386    0.186656     0.007504
PT285   PT        0.604573    0.153150    0.187932     0.004505
PT286   PT        0.608716    0.190671    0.149448     0.004505
PT287   PT        0.641713    0.191889    0.187551     0.004505
AU288   AU        0.142564    0.266950    0.187142     0.007504
PT289   PT        0.176733    0.228965    0.189974     0.004505
AU290   AU        0.176189    0.267633    0.151251     0.007504
AU291   AU        0.212740    0.230500    0.149053     0.007504
PT292   PT        0.211310    0.266815    0.189043     0.004505
PT293   PT        0.246951    0.229187    0.188110     0.004505
PT294   PT        0.247366    0.269854    0.148474     0.004505
AU295   AU        0.284563    0.230041    0.148094     0.007504
AU296   AU        0.282690    0.266104    0.187785     0.007504
AU297   AU        0.320724    0.229407    0.185280     0.007504
AU298   AU        0.319033    0.268649    0.147712     0.007504
AU299   AU        0.355921    0.229658    0.148363     0.007504
AU300   AU        0.357793    0.266930    0.186535     0.007504
AU301   AU        0.392750    0.227880    0.186229     0.007504
AU302   AU        0.393483    0.268082    0.147914     0.007504
AU303   AU        0.429193    0.228540    0.148974     0.007504
AU304   AU        0.429715    0.267357    0.184979     0.007504
PT305   PT        0.463903    0.228719    0.186464     0.004505
PT306   PT        0.465292    0.265933    0.146358     0.004505
PT307   PT        0.499959    0.228360    0.147265     0.004505
AU308   AU        0.498807    0.266932    0.186238     0.007504
PT309   PT        0.537510    0.228332    0.186084     0.004505
AU310   AU        0.535921    0.267502    0.148187     0.007504
PT311   PT        0.572887    0.227823    0.150691     0.004505
AU312   AU        0.573036    0.266532    0.187441     0.007504
PT313   PT        0.609129    0.229524    0.186607     0.004505
PT314   PT        0.605607    0.267571    0.148439     0.004505
PT315   PT        0.643963    0.230750    0.149658     0.004505
AU316   AU        0.644115    0.269278    0.187467     0.007504
PT317   PT        0.677955    0.227663    0.187664     0.004505
PT318   PT        0.678067    0.268955    0.148996     0.004505
PT319   PT        0.713127    0.267187    0.187825     0.004505
PT320   PT        0.109715    0.306268    0.188615     0.004505
AU321   AU        0.141673    0.308329    0.151199     0.007504
AU322   AU        0.141804    0.346450    0.187591     0.007504
AU323   AU        0.175418    0.306093    0.185870     0.007504
PT324   PT        0.178000    0.347139    0.146467     0.004505
PT325   PT        0.211227    0.308831    0.148798     0.004505
PT326   PT        0.209989    0.346382    0.186303     0.004505
PT327   PT        0.246595    0.306953    0.184608     0.004505
AU328   AU        0.247853    0.347749    0.149662     0.007504
PT329   PT        0.283627    0.305283    0.148938     0.004505
PT330   PT        0.282594    0.345628    0.184436     0.004505
AU331   AU        0.321118    0.305891    0.184294     0.007504
PT332   PT        0.321327    0.343558    0.147144     0.004505
AU333   AU        0.356208    0.304949    0.148320     0.007504
AU334   AU        0.357705    0.344612    0.185839     0.007504
AU335   AU        0.394256    0.304817    0.186948     0.007504
PT336   PT        0.393544    0.343938    0.149474     0.004505
PT337   PT        0.429365    0.307343    0.145647     0.004505
AU338   AU        0.427678    0.341718    0.186454     0.007504
AU339   AU        0.463034    0.306458    0.185825     0.007504
AU340   AU        0.465480    0.342859    0.146960     0.007504
AU341   AU        0.499732    0.304928    0.147384     0.007504
AU342   AU        0.501499    0.344158    0.185670     0.007504
PT343   PT        0.534196    0.306395    0.187202     0.004505
PT344   PT        0.537327    0.344336    0.148157     0.004505
PT345   PT        0.572157    0.305440    0.150267     0.004505
AU346   AU        0.571379    0.343704    0.184804     0.007504
AU347   AU        0.607365    0.303682    0.187158     0.007504
PT348   PT        0.608403    0.342896    0.149443     0.004505
PT349   PT        0.641942    0.305685    0.150281     0.004505
PT350   PT        0.643082    0.343491    0.186935     0.004505
AU351   AU        0.678575    0.306745    0.189048     0.007504
PT352   PT        0.677138    0.344734    0.149207     0.004505
AU353   AU        0.712712    0.306427    0.150178     0.007504
PT354   PT        0.713873    0.345353    0.188983     0.004505
PT355   PT        0.746267    0.306136    0.187049     0.004505
PT356   PT        0.073538    0.423635    0.188666     0.004505
PT357   PT        0.108441    0.386834    0.187861     0.004505
PT358   PT        0.108107    0.423431    0.152753     0.004505
AU359   AU        0.143700    0.389108    0.151856     0.007504
PT360   PT        0.143195    0.424812    0.188968     0.004505
PT361   PT        0.177139    0.387303    0.187559     0.004505
PT362   PT        0.178384    0.423823    0.149501     0.004505
AU363   AU        0.211475    0.385694    0.149572     0.007504
PT364   PT        0.212410    0.423729    0.187938     0.004505
PT365   PT        0.246522    0.384023    0.187597     0.004505
PT366   PT        0.249804    0.424594    0.148081     0.004505
PT367   PT        0.284507    0.385549    0.148455     0.004505
PT368   PT        0.284536    0.422606    0.188936     0.004505
PT369   PT        0.318750    0.383686    0.185204     0.004505
AU370   AU        0.319837    0.424746    0.148548     0.007504
PT371   PT        0.358400    0.382867    0.148827     0.004505
PT372   PT        0.354032    0.420299    0.185853     0.004505
AU373   AU        0.391809    0.380744    0.188398     0.007504
PT374   PT        0.392042    0.422926    0.147999     0.004505
PT375   PT        0.429880    0.381109    0.148060     0.004505
PT376   PT        0.431715    0.423816    0.183552     0.004505
PT377   PT        0.467484    0.382748    0.184430     0.004505
PT378   PT        0.466046    0.420703    0.147139     0.004505
PT379   PT        0.502579    0.381889    0.147586     0.004505
AU380   AU        0.499678    0.423793    0.184829     0.007504
PT381   PT        0.538117    0.383145    0.185736     0.004505
AU382   AU        0.539073    0.421945    0.148318     0.007504
PT383   PT        0.573580    0.381686    0.148767     0.004505
PT384   PT        0.572790    0.421406    0.186942     0.004505
PT385   PT        0.609069    0.385607    0.185071     0.004505
AU386   AU        0.609022    0.423187    0.146779     0.007504
AU387   AU        0.643311    0.384912    0.148714     0.007504
AU388   AU        0.643707    0.423299    0.185894     0.007504
PT389   PT        0.678390    0.381220    0.187708     0.004505
AU390   AU        0.679332    0.424476    0.147897     0.007504
PT391   PT        0.716691    0.385625    0.150180     0.004505
AU392   AU        0.715132    0.422522    0.186365     0.007504
PT393   PT        0.750215    0.384218    0.189592     0.004505
AU394   AU        0.749215    0.423137    0.148277     0.007504
PT395   PT        0.783338    0.421582    0.187022     0.004505
PT396   PT        0.072978    0.500639    0.188519     0.004505
PT397   PT        0.107792    0.461607    0.188345     0.004505
AU398   AU        0.108144    0.499583    0.151751     0.007504
AU399   AU        0.144601    0.461772    0.151380     0.007504
PT400   PT        0.142400    0.498822    0.187644     0.004505
AU401   AU        0.178380    0.462795    0.187456     0.007504
AU402   AU        0.176259    0.501198    0.148923     0.007504
AU403   AU        0.213408    0.462043    0.148374     0.007504
PT404   PT        0.213945    0.501673    0.184403     0.004505
AU405   AU        0.247209    0.461661    0.186331     0.007504
AU406   AU        0.248305    0.501619    0.148025     0.007504
PT407   PT        0.285263    0.463341    0.148878     0.004505
AU408   AU        0.284799    0.501641    0.184978     0.007504
PT409   PT        0.322147    0.464035    0.187914     0.004505
PT410   PT        0.321756    0.501212    0.147772     0.004505
PT411   PT        0.356905    0.465498    0.146964     0.004505
AU412   AU        0.358144    0.501163    0.186620     0.007504
PT413   PT        0.393482    0.465085    0.186394     0.004505
AU414   AU        0.391152    0.503061    0.147839     0.007504
AU415   AU        0.427675    0.461850    0.147449     0.007504
PT416   PT        0.427972    0.500804    0.187868     0.004505
AU417   AU        0.464614    0.462235    0.185911     0.007504
AU418   AU        0.463985    0.500871    0.148394     0.007504
AU419   AU        0.502375    0.460224    0.148055     0.007504
AU420   AU        0.500627    0.501908    0.186413     0.007504
AU421   AU        0.536596    0.458153    0.185191     0.007504
AU422   AU        0.537732    0.499478    0.148827     0.007504
AU423   AU        0.572636    0.459214    0.147659     0.007504
PT424   PT        0.574302    0.496404    0.186728     0.004505
AU425   AU        0.609524    0.460896    0.185214     0.007504
AU426   AU        0.608040    0.498314    0.147789     0.007504
PT427   PT        0.643630    0.460841    0.146992     0.004505
AU428   AU        0.643528    0.500431    0.185027     0.007504
AU429   AU        0.679592    0.460232    0.186766     0.007504
PT430   PT        0.679526    0.498761    0.149533     0.004505
PT431   PT        0.714243    0.460424    0.149703     0.004505
PT432   PT        0.714183    0.498367    0.185918     0.004505
PT433   PT        0.749093    0.459952    0.188086     0.004505
PT434   PT        0.751640    0.498454    0.150981     0.004505
AU435   AU        0.783678    0.499369    0.188659     0.007504
PT436   PT        0.108214    0.536585    0.188449     0.004505
AU437   AU        0.142209    0.538028    0.150428     0.007504
PT438   PT        0.142652    0.577858    0.186641     0.004505
AU439   AU        0.176650    0.537741    0.184575     0.007504
PT440   PT        0.176602    0.577839    0.149752     0.004505
AU441   AU        0.211358    0.540259    0.148906     0.007504
PT442   PT        0.211373    0.578096    0.185861     0.004505
PT443   PT        0.248502    0.540913    0.184551     0.004505
AU444   AU        0.249953    0.579095    0.147852     0.007504
AU445   AU        0.284814    0.539326    0.147466     0.007504
AU446   AU        0.282243    0.579206    0.186847     0.007504
AU447   AU        0.321914    0.540192    0.186374     0.007504
PT448   PT        0.319280    0.578914    0.147601     0.004505
PT449   PT        0.354944    0.540666    0.148045     0.004505
PT450   PT        0.355839    0.581183    0.186221     0.004505
AU451   AU        0.393284    0.540583    0.186131     0.007504
PT452   PT        0.392818    0.577200    0.147262     0.004505
AU453   AU        0.428840    0.540662    0.148303     0.007504
PT454   PT        0.427798    0.577970    0.187245     0.004505
PT455   PT        0.464272    0.538649    0.184720     0.004505
PT456   PT        0.464994    0.579523    0.147363     0.004505
AU457   AU        0.499705    0.539133    0.145999     0.007504
AU458   AU        0.498870    0.579317    0.186775     0.007504
AU459   AU        0.533396    0.541078    0.186029     0.007504
AU460   AU        0.534798    0.577575    0.147536     0.007504
AU461   AU        0.573713    0.536308    0.149682     0.007504
AU462   AU        0.572100    0.579394    0.186028     0.007504
PT463   PT        0.608984    0.540886    0.185049     0.004505
PT464   PT        0.610048    0.578826    0.149302     0.004505
PT465   PT        0.643564    0.536137    0.146571     0.004505
PT466   PT        0.646375    0.577049    0.185390     0.004505
PT467   PT        0.680018    0.538806    0.186257     0.004505
AU468   AU        0.679312    0.577045    0.147523     0.007504
PT469   PT        0.713707    0.535022    0.148928     0.004505
AU470   AU        0.714029    0.578382    0.185746     0.007504
PT471   PT        0.749576    0.536861    0.185176     0.004505
AU472   AU        0.109067    0.616492    0.187568     0.007504
PT473   PT        0.143541    0.615714    0.150914     0.004505
AU474   AU        0.143726    0.653750    0.187845     0.007504
PT475   PT        0.178828    0.616478    0.186378     0.004505
AU476   AU        0.178679    0.653232    0.148947     0.007504
PT477   PT        0.211912    0.616749    0.150128     0.004505
AU478   AU        0.212375    0.654427    0.186299     0.007504
PT479   PT        0.249597    0.617068    0.185165     0.004505
PT480   PT        0.247598    0.654410    0.149056     0.004505
PT481   PT        0.284391    0.616675    0.146592     0.004505
AU482   AU        0.284250    0.654668    0.184800     0.007504
AU483   AU        0.319297    0.616929    0.185824     0.007504
AU484   AU        0.321996    0.654598    0.149099     0.007504
PT485   PT        0.356040    0.616522    0.146841     0.004505
AU486   AU        0.355968    0.653871    0.184249     0.007504
AU487   AU        0.392269    0.616655    0.187301     0.007504
AU488   AU        0.390637    0.655579    0.146731     0.007504
PT489   PT        0.426694    0.618121    0.148524     0.004505
PT490   PT        0.428489    0.657054    0.184723     0.004505
AU491   AU        0.462099    0.617278    0.184423     0.007504
PT492   PT        0.463942    0.655438    0.147865     0.004505
PT493   PT        0.500500    0.620045    0.147472     0.004505
PT494   PT        0.499937    0.657410    0.185605     0.004505
PT495   PT        0.533500    0.617920    0.185718     0.004505
PT496   PT        0.537084    0.656163    0.147004     0.004505
AU497   AU        0.571888    0.617558    0.149760     0.007504
AU498   AU        0.571262    0.656373    0.186578     0.007504
PT499   PT        0.610108    0.616052    0.185421     0.004505
AU500   AU        0.606659    0.655886    0.148952     0.007504
AU501   AU        0.643607    0.615939    0.146957     0.007504
AU502   AU        0.643829    0.653322    0.187905     0.007504
PT503   PT        0.678568    0.616114    0.188145     0.004505
PT504   PT        0.678734    0.654557    0.150578     0.004505
PT505   PT        0.713463    0.614602    0.150761     0.004505
PT506   PT        0.712457    0.653819    0.187879     0.004505
PT507   PT        0.747957    0.616915    0.188503     0.004505
PT508   PT        0.180138    0.690641    0.186557     0.004505
PT509   PT        0.215815    0.693823    0.149006     0.004505
PT510   PT        0.214387    0.729474    0.186999     0.004505
AU511   AU        0.249470    0.693529    0.187401     0.007504
PT512   PT        0.250091    0.731303    0.148598     0.004505
PT513   PT        0.288316    0.693067    0.149038     0.004505
PT514   PT        0.284842    0.731493    0.186082     0.004505
AU515   AU        0.321377    0.694658    0.186362     0.007504
AU516   AU        0.320104    0.732290    0.146961     0.007504
AU517   AU        0.357730    0.695430    0.148342     0.007504
AU518   AU        0.357002    0.732013    0.185591     0.007504
AU519   AU        0.390915    0.691647    0.186053     0.007504
PT520   PT        0.392615    0.731825    0.150481     0.004505
PT521   PT        0.427715    0.693021    0.146536     0.004505
PT522   PT        0.427561    0.732119    0.187346     0.004505
PT523   PT        0.464237    0.693937    0.186084     0.004505
AU524   AU        0.464131    0.732282    0.150332     0.007504
AU525   AU        0.498135    0.693831    0.148111     0.007504
AU526   AU        0.500905    0.732705    0.185780     0.007504
AU527   AU        0.535354    0.694105    0.184717     0.007504
AU528   AU        0.538163    0.731334    0.148870     0.007504
PT529   PT        0.570718    0.693541    0.148874     0.004505
PT530   PT        0.571968    0.732044    0.188409     0.004505
AU531   AU        0.608899    0.692365    0.187672     0.007504
PT532   PT        0.608179    0.729318    0.150024     0.004505
AU533   AU        0.642838    0.691754    0.150376     0.007504
PT534   PT        0.644091    0.729573    0.186719     0.004505
AU535   AU        0.678174    0.691432    0.188410     0.007504
PT536   PT        0.248705    0.767189    0.185285     0.004505
PT537   PT        0.282719    0.768618    0.150578     0.004505
PT538   PT        0.284879    0.806013    0.186182     0.004505
PT539   PT        0.320076    0.767985    0.185993     0.004505
PT540   PT        0.357945    0.768814    0.148789     0.004505
AU541   AU        0.358653    0.809750    0.188377     0.007504
PT542   PT        0.392532    0.770552    0.186957     0.004505
PT543   PT        0.393228    0.807926    0.149599     0.004505
AU544   AU        0.427967    0.770427    0.149439     0.007504
AU545   AU        0.428782    0.808108    0.187353     0.007504
PT546   PT        0.463108    0.770745    0.185883     0.004505
PT547   PT        0.463154    0.807955    0.149178     0.004505
PT548   PT        0.497458    0.769927    0.149045     0.004505
PT549   PT        0.498603    0.807897    0.187249     0.004505
PT550   PT        0.535421    0.770447    0.184212     0.004505
AU551   AU        0.574934    0.767760    0.149782     0.007504
PT552   PT        0.572783    0.804674    0.188220     0.004505
AU553   AU        0.608248    0.767807    0.186792     0.007504
PT554   PT        0.392027    0.845708    0.188828     0.004505
AU555   AU        0.463961    0.845144    0.187582     0.007504
PT556   PT        0.355946    0.041795    0.263434     0.004505
PT557   PT        0.427793    0.044191    0.262794     0.004505
PT558   PT        0.500140    0.041282    0.263029     0.004505
PT559   PT        0.212622    0.117899    0.264153     0.004505
PT560   PT        0.249693    0.078657    0.265638     0.004505
AU561   AU        0.248304    0.117214    0.225911     0.007504
PT562   PT        0.284729    0.115390    0.263264     0.004505
PT563   PT        0.321750    0.077928    0.264939     0.004505
PT564   PT        0.321363    0.114888    0.227397     0.004505
PT565   PT        0.358272    0.078147    0.226927     0.004505
PT566   PT        0.356575    0.113765    0.264714     0.004505
PT567   PT        0.392713    0.077346    0.263572     0.004505
PT568   PT        0.393779    0.114612    0.225360     0.004505
AU569   AU        0.428356    0.078928    0.224982     0.007504
AU570   AU        0.428645    0.115268    0.263060     0.007504
PT571   PT        0.464355    0.077409    0.264524     0.004505
PT572   PT        0.463724    0.116171    0.224706     0.004505
PT573   PT        0.499195    0.078739    0.227668     0.004505
PT574   PT        0.499625    0.115968    0.263104     0.004505
AU575   AU        0.534216    0.079182    0.267839     0.007504
PT576   PT        0.532496    0.114192    0.224706     0.004505
PT577   PT        0.572468    0.116715    0.263980     0.004505
AU578   AU        0.607909    0.078547    0.264472     0.007504
PT579   PT        0.605162    0.117905    0.227835     0.004505
AU580   AU        0.641129    0.116705    0.263455     0.007504
AU581   AU        0.142564    0.192935    0.262371     0.007504
PT582   PT        0.177975    0.154014    0.265532     0.004505
PT583   PT        0.180713    0.193507    0.227126     0.004505
AU584   AU        0.214476    0.155129    0.228555     0.007504
AU585   AU        0.212284    0.191449    0.265164     0.007504
PT586   PT        0.250845    0.152611    0.265107     0.004505
PT587   PT        0.249138    0.192959    0.224708     0.004505
AU588   AU        0.285710    0.153053    0.225220     0.007504
AU589   AU        0.284453    0.191626    0.261290     0.007504
PT590   PT        0.319292    0.151257    0.265847     0.004505
PT591   PT        0.319241    0.191969    0.224132     0.004505
AU592   AU        0.356954    0.152111    0.225172     0.007504
AU593   AU        0.354542    0.191211    0.261479     0.007504
PT594   PT        0.392067    0.152653    0.261049     0.004505
PT595   PT        0.393153    0.190770    0.225791     0.004505
PT596   PT        0.429938    0.152481    0.224788     0.004505
AU597   AU        0.428615    0.190776    0.261914     0.007504
PT598   PT        0.463663    0.152708    0.263153     0.004505
PT599   PT        0.461269    0.191939    0.225252     0.004505
AU600   AU        0.500011    0.154104    0.222823     0.007504
PT601   PT        0.499785    0.189650    0.265261     0.004505
AU602   AU        0.534484    0.154115    0.264385     0.007504
PT603   PT        0.534164    0.190943    0.224215     0.004505
AU604   AU        0.570902    0.153975    0.225199     0.007504
PT605   PT        0.570513    0.191508    0.261693     0.004505
PT606   PT        0.606338    0.153598    0.264808     0.004505
PT607   PT        0.607393    0.190872    0.224911     0.004505
PT608   PT        0.642153    0.154012    0.226044     0.004505
PT609   PT        0.642670    0.190996    0.264564     0.004505
AU610   AU        0.676049    0.155103    0.263730     0.007504
PT611   PT        0.678081    0.190314    0.227532     0.004505
PT612   PT        0.712247    0.192239    0.264996     0.004505
PT613   PT        0.074581    0.270204    0.263071     0.004505
PT614   PT        0.107989    0.231133    0.265663     0.004505
PT615   PT        0.109590    0.269291    0.227671     0.004505
AU616   AU        0.143674    0.231247    0.229010     0.007504
PT617   PT        0.141701    0.270008    0.266501     0.004505
PT618   PT        0.178197    0.229437    0.264575     0.004505
PT619   PT        0.178162    0.270427    0.225303     0.004505
AU620   AU        0.213595    0.230863    0.225736     0.007504
PT621   PT        0.211721    0.267063    0.263342     0.004505
AU622   AU        0.247480    0.229995    0.265184     0.007504
AU623   AU        0.246606    0.268099    0.225218     0.007504
PT624   PT        0.283414    0.229469    0.224706     0.004505
AU625   AU        0.283698    0.269017    0.263725     0.007504
AU626   AU        0.318999    0.228742    0.263017     0.007504
AU627   AU        0.317712    0.267141    0.225868     0.007504
AU628   AU        0.355416    0.229111    0.223600     0.007504
PT629   PT        0.356955    0.268957    0.264541     0.004505
AU630   AU        0.392843    0.230391    0.262174     0.007504
AU631   AU        0.392139    0.266588    0.224688     0.007504
AU632   AU        0.428997    0.230957    0.222843     0.007504
AU633   AU        0.429157    0.266527    0.261650     0.007504
AU634   AU        0.464982    0.230138    0.261599     0.007504
AU635   AU        0.464418    0.267326    0.224059     0.007504
PT636   PT        0.500265    0.227763    0.226719     0.004505
AU637   AU        0.498955    0.268240    0.264018     0.007504
PT638   PT        0.534787    0.230082    0.263074     0.004505
AU639   AU        0.537311    0.267025    0.225795     0.007504
AU640   AU        0.573201    0.229584    0.224686     0.007504
AU641   AU        0.571476    0.267977    0.263179     0.007504
PT642   PT        0.605744    0.228594    0.263101     0.004505
PT643   PT        0.606904    0.268587    0.226318     0.004505
PT644   PT        0.642632    0.228320    0.226124     0.004505
AU645   AU        0.642920    0.265823    0.261146     0.007504
PT646   PT        0.678240    0.227695    0.263836     0.004505
PT647   PT        0.679336    0.267264    0.224880     0.004505
PT648   PT        0.713220    0.231410    0.227146     0.004505
AU649   AU        0.713303    0.268485    0.264995     0.007504
AU650   AU        0.747883    0.231142    0.265456     0.007504
PT651   PT        0.748131    0.266937    0.225269     0.004505
AU652   AU        0.782966    0.266065    0.265958     0.007504
PT653   PT        0.071473    0.348557    0.266593     0.004505
PT654   PT        0.107635    0.306868    0.264895     0.004505
PT655   PT        0.107687    0.346357    0.225449     0.004505
AU656   AU        0.142181    0.304712    0.225360     0.007504
AU657   AU        0.140304    0.343293    0.264039     0.007504
AU658   AU        0.177799    0.306082    0.262514     0.007504
AU659   AU        0.173458    0.347222    0.225677     0.007504
AU660   AU        0.213056    0.306037    0.223110     0.007504
PT661   PT        0.213078    0.344268    0.261992     0.004505
AU662   AU        0.247943    0.303700    0.264438     0.007504
PT663   PT        0.247167    0.345187    0.221271     0.004505
AU664   AU        0.282568    0.307369    0.224582     0.007504
AU665   AU        0.284583    0.343501    0.263339     0.007504
PT666   PT        0.319504    0.303901    0.264497     0.004505
PT667   PT        0.319207    0.342897    0.225038     0.004505
AU668   AU        0.356382    0.304104    0.224442     0.007504
PT669   PT        0.356947    0.343282    0.261893     0.004505
AU670   AU        0.391774    0.305119    0.262873     0.007504
AU671   AU        0.392250    0.342668    0.225275     0.007504
AU672   AU        0.427598    0.304324    0.224872     0.007504
AU673   AU        0.429249    0.344470    0.264418     0.007504
PT674   PT        0.464887    0.309233    0.264977     0.004505
PT675   PT        0.465046    0.343283    0.225855     0.004505
AU676   AU        0.499608    0.304520    0.225662     0.007504
AU677   AU        0.499958    0.344941    0.264331     0.007504
AU678   AU        0.535750    0.303880    0.264695     0.007504
PT679   PT        0.536853    0.344246    0.225142     0.004505
PT680   PT        0.570565    0.305437    0.222649     0.004505
AU681   AU        0.573682    0.345622    0.262420     0.007504
AU682   AU        0.607501    0.305159    0.264464     0.007504
PT683   PT        0.609235    0.344691    0.223451     0.004505
AU684   AU        0.643990    0.306264    0.227113     0.007504
AU685   AU        0.643318    0.343989    0.263457     0.007504
PT686   PT        0.677762    0.304199    0.262116     0.004505
PT687   PT        0.679556    0.344909    0.226202     0.004505
PT688   PT        0.713110    0.304751    0.225296     0.004505
AU689   AU        0.712973    0.344474    0.262972     0.007504
PT690   PT        0.749746    0.305445    0.264417     0.004505
PT691   PT        0.749647    0.344805    0.226905     0.004505
AU692   AU        0.783608    0.346489    0.266131     0.007504
PT693   PT        0.035740    0.387077    0.266882     0.004505
PT694   PT        0.073002    0.387748    0.227921     0.004505
AU695   AU        0.070814    0.423660    0.263368     0.007504
AU696   AU        0.107346    0.385184    0.265125     0.007504
PT697   PT        0.106906    0.423774    0.226983     0.004505
AU698   AU        0.140835    0.385840    0.224293     0.007504
PT699   PT        0.142586    0.422226    0.262952     0.004505
AU700   AU        0.176387    0.383892    0.264128     0.007504
AU701   AU        0.175940    0.424149    0.225825     0.007504
AU702   AU        0.212450    0.383924    0.224942     0.007504
AU703   AU        0.211640    0.422408    0.263824     0.007504
PT704   PT        0.248122    0.385173    0.260754     0.004505
AU705   AU        0.246078    0.425302    0.224765     0.007504
AU706   AU        0.284988    0.383191    0.222359     0.007504
AU707   AU        0.284347    0.421873    0.263926     0.007504
AU708   AU        0.318420    0.379803    0.262768     0.007504
AU709   AU        0.317855    0.421278    0.225627     0.007504
AU710   AU        0.353043    0.381709    0.223010     0.007504
AU711   AU        0.353544    0.413925    0.265340     0.007504
AU712   AU        0.393316    0.380995    0.264432     0.007504
PT713   PT        0.398485    0.421421    0.221251     0.004505
AU714   AU        0.427138    0.379983    0.226995     0.007504
AU715   AU        0.429808    0.421055    0.264219     0.007504
AU716   AU        0.464668    0.381167    0.263389     0.007504
AU717   AU        0.465004    0.423112    0.226152     0.007504
AU718   AU        0.500694    0.383321    0.224160     0.007504
AU719   AU        0.497632    0.417351    0.266882     0.007504
PT720   PT        0.537634    0.384382    0.264683     0.004505
AU721   AU        0.532190    0.424361    0.224900     0.007504
PT722   PT        0.574983    0.382375    0.223782     0.004505
AU723   AU        0.574539    0.421234    0.263810     0.007504
AU724   AU        0.608734    0.382354    0.263882     0.007504
AU725   AU        0.608361    0.421097    0.225208     0.007504
AU726   AU        0.644738    0.382748    0.227018     0.007504
AU727   AU        0.643229    0.423692    0.261413     0.007504
PT728   PT        0.678873    0.384376    0.263131     0.004505
PT729   PT        0.680023    0.421394    0.223943     0.004505
PT730   PT        0.715712    0.385411    0.224325     0.004505
PT731   PT        0.713939    0.425045    0.261914     0.004505
AU732   AU        0.748695    0.383700    0.264122     0.007504
AU733   AU        0.750724    0.424207    0.226351     0.007504
PT734   PT        0.783040    0.385214    0.227666     0.004505
PT735   PT        0.783909    0.422252    0.263701     0.004505
AU736   AU        0.819352    0.384715    0.265155     0.007504
PT737   PT        0.038279    0.462126    0.264981     0.004505
PT738   PT        0.073058    0.462745    0.224497     0.004505
PT739   PT        0.071921    0.499039    0.262151     0.004505
PT740   PT        0.105934    0.461204    0.262765     0.004505
PT741   PT        0.107745    0.500587    0.225347     0.004505
PT742   PT        0.141276    0.462566    0.225249     0.004505
AU743   AU        0.140433    0.500101    0.264249     0.007504
PT744   PT        0.176318    0.463438    0.262551     0.004505
AU745   AU        0.176855    0.502749    0.225447     0.007504
PT746   PT        0.211807    0.463045    0.226067     0.004505
AU747   AU        0.213776    0.500903    0.265892     0.007504
AU748   AU        0.248675    0.462034    0.265849     0.007504
AU749   AU        0.247851    0.501671    0.223971     0.007504
AU750   AU        0.284072    0.463023    0.225728     0.007504
PT751   PT        0.283807    0.502936    0.262667     0.004505
AU752   AU        0.319691    0.465393    0.261729     0.007504
AU753   AU        0.318922    0.501778    0.225259     0.007504
PT754   PT        0.356496    0.468357    0.225659     0.004505
AU755   AU        0.357063    0.505469    0.262176     0.007504
PT756   PT        0.391678    0.470080    0.263642     0.004505
AU757   AU        0.393107    0.503164    0.224367     0.007504
AU758   AU        0.427726    0.463843    0.225405     0.007504
PT759   PT        0.430746    0.501248    0.265762     0.004505
AU760   AU        0.465047    0.459252    0.264831     0.007504
AU761   AU        0.464606    0.501956    0.225937     0.007504
AU762   AU        0.500996    0.464718    0.224410     0.007504
AU763   AU        0.501611    0.503363    0.261271     0.007504
AU764   AU        0.537468    0.466038    0.260067     0.007504
PT765   PT        0.536103    0.502955    0.225138     0.004505
AU766   AU        0.572773    0.458088    0.223157     0.007504
PT767   PT        0.573588    0.504523    0.264955     0.004505
AU768   AU        0.609226    0.459839    0.261649     0.007504
AU769   AU        0.610328    0.498436    0.223263     0.007504
PT770   PT        0.644928    0.460792    0.223777     0.004505
PT771   PT        0.643071    0.497893    0.263231     0.004505
PT772   PT        0.678765    0.460156    0.262830     0.004505
PT773   PT        0.677566    0.499405    0.220517     0.004505
PT774   PT        0.715077    0.461243    0.225648     0.004505
AU775   AU        0.715148    0.497343    0.262830     0.007504
PT776   PT        0.750765    0.459356    0.262642     0.004505
PT777   PT        0.749390    0.499484    0.223571     0.004505
PT778   PT        0.783748    0.460829    0.224451     0.004505
AU779   AU        0.784523    0.500405    0.263988     0.007504
PT780   PT        0.817842    0.460977    0.264312     0.004505
PT781   PT        0.037795    0.540874    0.266393     0.004505
PT782   PT        0.075043    0.540390    0.227894     0.004505
PT783   PT        0.073028    0.576954    0.264772     0.004505
PT784   PT        0.107680    0.538928    0.265921     0.004505
PT785   PT        0.108686    0.578057    0.225630     0.004505
PT786   PT        0.141864    0.538736    0.223070     0.004505
AU787   AU        0.142153    0.578603    0.263192     0.007504
PT788   PT        0.176819    0.536968    0.263907     0.004505
PT789   PT        0.177815    0.577609    0.223319     0.004505
AU790   AU        0.212457    0.538826    0.224200     0.007504
AU791   AU        0.211846    0.578068    0.261450     0.007504
AU792   AU        0.249726    0.540838    0.263524     0.007504
PT793   PT        0.248546    0.580140    0.223045     0.004505
AU794   AU        0.282769    0.539914    0.224250     0.007504
AU795   AU        0.284433    0.580366    0.262122     0.007504
AU796   AU        0.318334    0.541931    0.263045     0.007504
AU797   AU        0.320430    0.580082    0.225461     0.007504
PT798   PT        0.356004    0.540785    0.223185     0.004505
AU799   AU        0.357104    0.577791    0.263535     0.007504
PT800   PT        0.393896    0.540771    0.263285     0.004505
AU801   AU        0.391020    0.578483    0.223720     0.007504
PT802   PT        0.428406    0.540156    0.222744     0.004505
AU803   AU        0.428136    0.579471    0.261237     0.007504
AU804   AU        0.463690    0.540578    0.262858     0.007504
PT805   PT        0.465896    0.578834    0.225977     0.004505
PT806   PT        0.500781    0.541659    0.224794     0.004505
AU807   AU        0.499882    0.579119    0.265335     0.007504
AU808   AU        0.535404    0.542133    0.262263     0.007504
AU809   AU        0.535017    0.579911    0.224926     0.007504
AU810   AU        0.570216    0.542274    0.225274     0.007504
PT811   PT        0.573759    0.576336    0.263268     0.004505
AU812   AU        0.609158    0.540011    0.262278     0.007504
PT813   PT        0.609629    0.577731    0.225200     0.004505
AU814   AU        0.645837    0.538690    0.225201     0.007504
AU815   AU        0.644544    0.579207    0.262631     0.007504
AU816   AU        0.679512    0.535426    0.262575     0.007504
AU817   AU        0.680722    0.576917    0.225374     0.007504
PT818   PT        0.713504    0.537152    0.223871     0.004505
PT819   PT        0.715914    0.577219    0.264678     0.004505
AU820   AU        0.748312    0.536806    0.264328     0.007504
PT821   PT        0.749342    0.576110    0.228249     0.004505
PT822   PT        0.783544    0.537896    0.225683     0.004505
PT823   PT        0.783437    0.575660    0.266211     0.004505
PT824   PT        0.816689    0.539251    0.265536     0.004505
PT825   PT        0.073054    0.654289    0.266066     0.004505
PT826   PT        0.106587    0.616255    0.262354     0.004505
PT827   PT        0.108398    0.654010    0.227097     0.004505
AU828   AU        0.143406    0.615580    0.226101     0.007504
PT829   PT        0.143096    0.655400    0.263917     0.004505
AU830   AU        0.177900    0.615061    0.263520     0.007504
AU831   AU        0.178005    0.655618    0.225753     0.007504
AU832   AU        0.210781    0.615772    0.224917     0.007504
PT833   PT        0.211988    0.655848    0.262301     0.004505
PT834   PT        0.249045    0.615742    0.262774     0.004505
AU835   AU        0.247397    0.655402    0.225246     0.007504
AU836   AU        0.284547    0.618142    0.224603     0.007504
AU837   AU        0.282013    0.655473    0.264968     0.007504
AU838   AU        0.322694    0.617297    0.263179     0.007504
AU839   AU        0.320075    0.655142    0.223754     0.007504
AU840   AU        0.355288    0.619383    0.225183     0.007504
PT841   PT        0.359015    0.656952    0.263985     0.004505
AU842   AU        0.392786    0.618222    0.262164     0.007504
AU843   AU        0.394735    0.656372    0.223137     0.007504
AU844   AU        0.429856    0.615968    0.225250     0.007504
PT845   PT        0.427107    0.655995    0.263993     0.004505
AU846   AU        0.464537    0.617336    0.263779     0.007504
PT847   PT        0.463257    0.655612    0.223120     0.004505
PT848   PT        0.499480    0.617068    0.224701     0.004505
AU849   AU        0.497645    0.656284    0.263136     0.007504
AU850   AU        0.533343    0.616732    0.263426     0.007504
AU851   AU        0.534542    0.655617    0.223577     0.007504
AU852   AU        0.572009    0.616410    0.221894     0.007504
AU853   AU        0.573388    0.651413    0.261243     0.007504
PT854   PT        0.611221    0.615495    0.263871     0.004505
PT855   PT        0.606728    0.654985    0.222942     0.004505
PT856   PT        0.644711    0.616731    0.223459     0.004505
PT857   PT        0.643845    0.654887    0.263421     0.004505
AU858   AU        0.679124    0.614591    0.262534     0.007504
AU859   AU        0.678827    0.653928    0.225022     0.007504
PT860   PT        0.714906    0.615184    0.224531     0.004505
PT861   PT        0.714501    0.654559    0.263280     0.004505
AU862   AU        0.749672    0.615598    0.264579     0.007504
AU863   AU        0.747753    0.654706    0.226276     0.007504
PT864   PT        0.783018    0.653920    0.264092     0.004505
PT865   PT        0.109236    0.692714    0.263214     0.004505
PT866   PT        0.143298    0.691777    0.227242     0.004505
PT867   PT        0.141323    0.729742    0.263664     0.004505
AU868   AU        0.177585    0.694615    0.264036     0.007504
AU869   AU        0.177148    0.729790    0.226721     0.007504
PT870   PT        0.212254    0.694187    0.224483     0.004505
PT871   PT        0.211828    0.732800    0.263492     0.004505
AU872   AU        0.247218    0.697223    0.263447     0.007504
PT873   PT        0.248701    0.731445    0.225108     0.004505
PT874   PT        0.284321    0.693937    0.224216     0.004505
PT875   PT        0.283938    0.732278    0.263571     0.004505
AU876   AU        0.318794    0.693696    0.261806     0.007504
PT877   PT        0.321499    0.731055    0.223077     0.004505
PT878   PT        0.356611    0.694179    0.226168     0.004505
PT879   PT        0.356404    0.733605    0.262369     0.004505
AU880   AU        0.391953    0.694423    0.261020     0.007504
AU881   AU        0.392175    0.731647    0.223019     0.007504
AU882   AU        0.428693    0.694143    0.223519     0.007504
AU883   AU        0.428889    0.731657    0.261429     0.007504
PT884   PT        0.463450    0.694737    0.260631     0.004505
PT885   PT        0.462976    0.732360    0.222006     0.004505
AU886   AU        0.501679    0.694635    0.223661     0.007504
AU887   AU        0.502025    0.730664    0.263119     0.007504
AU888   AU        0.536957    0.692992    0.261635     0.007504
AU889   AU        0.536390    0.734290    0.223240     0.007504
AU890   AU        0.570692    0.694574    0.224490     0.007504
AU891   AU        0.570015    0.734323    0.262721     0.007504
PT892   PT        0.606601    0.691123    0.260365     0.004505
AU893   AU        0.607624    0.731207    0.225357     0.007504
AU894   AU        0.644466    0.693122    0.226841     0.007504
PT895   PT        0.641886    0.731610    0.263210     0.004505
PT896   PT        0.679378    0.692858    0.265538     0.004505
PT897   PT        0.679784    0.729505    0.225336     0.004505
AU898   AU        0.712442    0.690745    0.226182     0.007504
PT899   PT        0.713766    0.730681    0.264525     0.004505
PT900   PT        0.747862    0.691741    0.265943     0.004505
PT901   PT        0.178672    0.768939    0.265501     0.004505
PT902   PT        0.214701    0.768530    0.225801     0.004505
PT903   PT        0.213269    0.806582    0.261672     0.004505
PT904   PT        0.247991    0.770175    0.262750     0.004505
PT905   PT        0.249118    0.806290    0.226053     0.004505
PT906   PT        0.285103    0.768654    0.223328     0.004505
PT907   PT        0.284360    0.808045    0.263206     0.004505
AU908   AU        0.320363    0.768783    0.264124     0.007504
PT909   PT        0.320676    0.806257    0.224676     0.004505
AU910   AU        0.354877    0.770114    0.224283     0.007504
PT911   PT        0.356254    0.808325    0.262580     0.004505
PT912   PT        0.391239    0.770571    0.262975     0.004505
PT913   PT        0.392734    0.809481    0.224977     0.004505
PT914   PT        0.428482    0.770685    0.225751     0.004505
AU915   AU        0.427982    0.807837    0.262104     0.007504
AU916   AU        0.464013    0.770274    0.262926     0.007504
AU917   AU        0.463134    0.808574    0.225289     0.007504
AU918   AU        0.498142    0.770533    0.223241     0.007504
PT919   PT        0.498589    0.808665    0.262908     0.004505
AU920   AU        0.536476    0.771347    0.264936     0.007504
PT921   PT        0.533616    0.808358    0.226537     0.004505
PT922   PT        0.571957    0.769579    0.224036     0.004505
PT923   PT        0.572653    0.807518    0.263455     0.004505
AU924   AU        0.607620    0.769367    0.261595     0.007504
PT925   PT        0.606868    0.806956    0.225964     0.004505
PT926   PT        0.643157    0.769413    0.227327     0.004505
PT927   PT        0.641849    0.806112    0.263922     0.004505
PT928   PT        0.677400    0.767794    0.265277     0.004505
AU929   AU        0.249450    0.843986    0.265038     0.007504
PT930   PT        0.321232    0.845205    0.263981     0.004505
PT931   PT        0.356448    0.846238    0.227481     0.004505
PT932   PT        0.357569    0.881950    0.266014     0.004505
AU933   AU        0.392461    0.845093    0.263143     0.007504
PT934   PT        0.428222    0.845498    0.225018     0.004505
PT935   PT        0.427465    0.883125    0.264481     0.004505
PT936   PT        0.463290    0.846546    0.264843     0.004505
AU937   AU        0.496598    0.844153    0.225793     0.007504
PT938   PT        0.499912    0.882871    0.262283     0.004505
AU939   AU        0.535503    0.844000    0.264024     0.007504
AU940   AU        0.608507    0.843736    0.264062     0.007504
AU941   AU        0.284308    0.039700    0.341634     0.007504
PT942   PT        0.320050    0.039902    0.301562     0.004505
PT943   PT        0.356818    0.039688    0.339055     0.004505
AU944   AU        0.391423    0.040614    0.300175     0.007504
PT945   PT        0.427400    0.041165    0.340977     0.004505
PT946   PT        0.463655    0.041377    0.301340     0.004505
PT947   PT        0.499855    0.040669    0.339229     0.004505
PT948   PT        0.536135    0.040776    0.301569     0.004505
AU949   AU        0.572305    0.041252    0.340496     0.007504
PT950   PT        0.176824    0.117094    0.303175     0.004505
AU951   AU        0.213298    0.116083    0.341185     0.007504
AU952   AU        0.175479    0.078567    0.343157     0.007504
AU953   AU        0.248470    0.117366    0.302178     0.007504
PT954   PT        0.285549    0.078322    0.301712     0.004505
PT955   PT        0.284097    0.114900    0.339149     0.004505
PT956   PT        0.320125    0.077444    0.340998     0.004505
PT957   PT        0.318979    0.114164    0.302684     0.004505
AU958   AU        0.356078    0.075747    0.303445     0.007504
PT959   PT        0.355638    0.112548    0.343249     0.004505
PT960   PT        0.391980    0.076475    0.341302     0.004505
PT961   PT        0.392611    0.113786    0.303791     0.004505
AU962   AU        0.427855    0.077806    0.302346     0.007504
PT963   PT        0.428462    0.115932    0.341891     0.004505
PT964   PT        0.462781    0.076503    0.342746     0.004505
PT965   PT        0.463480    0.114247    0.303363     0.004505
PT966   PT        0.500073    0.077888    0.303592     0.004505
AU967   AU        0.499012    0.113099    0.342084     0.007504
AU968   AU        0.535477    0.076279    0.340527     0.007504
AU969   AU        0.536151    0.115299    0.304401     0.007504
PT970   PT        0.570480    0.078067    0.302295     0.004505
AU971   AU        0.570773    0.114867    0.339590     0.007504
PT972   PT        0.606754    0.077491    0.342378     0.004505
PT973   PT        0.606687    0.116541    0.301644     0.004505
PT974   PT        0.641434    0.116155    0.339657     0.004505
PT975   PT        0.677083    0.117090    0.302562     0.004505
PT976   PT        0.108843    0.192066    0.301619     0.004505
PT977   PT        0.144472    0.155662    0.302551     0.004505
AU978   AU        0.141682    0.193306    0.342685     0.007504
PT979   PT        0.177671    0.154592    0.341123     0.004505
AU980   AU        0.176261    0.193072    0.301648     0.007504
PT981   PT        0.212335    0.154010    0.301356     0.004505
PT982   PT        0.212657    0.191587    0.339625     0.004505
AU983   AU        0.248234    0.151212    0.343164     0.007504
AU984   AU        0.249862    0.190130    0.304400     0.007504
PT985   PT        0.283608    0.153864    0.302833     0.004505
PT986   PT        0.284535    0.188561    0.342099     0.004505
AU987   AU        0.318790    0.150977    0.341274     0.007504
PT988   PT        0.319468    0.190292    0.305305     0.004505
PT989   PT        0.354612    0.151091    0.302710     0.004505
PT990   PT        0.356703    0.188867    0.340900     0.004505
AU991   AU        0.391940    0.152739    0.341039     0.007504
AU992   AU        0.393537    0.189649    0.302446     0.007504
PT993   PT        0.426497    0.153367    0.302782     0.004505
PT994   PT        0.427774    0.189853    0.343555     0.004505
AU995   AU        0.464184    0.153722    0.340165     0.007504
AU996   AU        0.464719    0.192124    0.302518     0.007504
PT997   PT        0.499291    0.151316    0.304250     0.004505
AU998   AU        0.501635    0.189376    0.340656     0.007504
PT999   PT        0.534436    0.150725    0.341792     0.004505
PT1000   PT        0.538720    0.189834    0.300754     0.004505
AU1001   AU        0.571753    0.153387    0.300655     0.007504
AU1002   AU        0.571324    0.190650    0.342797     0.007504
PT1003   PT        0.605953    0.152030    0.338562     0.004505
PT1004   PT        0.607780    0.190950    0.303003     0.004505
AU1005   AU        0.641544    0.153357    0.301105     0.007504
AU1006   AU        0.644237    0.189922    0.340902     0.007504
PT1007   PT        0.678296    0.155106    0.341878     0.004505
PT1008   PT        0.677082    0.190837    0.303330     0.004505
PT1009   PT        0.713254    0.154437    0.303258     0.004505
PT1010   PT        0.713433    0.190500    0.341592     0.004505
AU1011   AU        0.747315    0.191541    0.303332     0.007504
PT1012   PT        0.071047    0.269324    0.342559     0.004505
PT1013   PT        0.106193    0.232383    0.342762     0.004505
PT1014   PT        0.106145    0.270189    0.303533     0.004505
PT1015   PT        0.141440    0.231397    0.303817     0.004505
PT1016   PT        0.140506    0.269529    0.340726     0.004505
PT1017   PT        0.175674    0.229133    0.343590     0.004505
PT1018   PT        0.175323    0.266782    0.303566     0.004505
PT1019   PT        0.212734    0.227834    0.302792     0.004505
PT1020   PT        0.214106    0.266387    0.340770     0.004505
AU1021   AU        0.248942    0.227828    0.340735     0.007504
PT1022   PT        0.249091    0.265400    0.302992     0.004505
PT1023   PT        0.284939    0.228599    0.301658     0.004505
AU1024   AU        0.285088    0.266056    0.340968     0.007504
AU1025   AU        0.320166    0.229473    0.340050     0.007504
PT1026   PT        0.320230    0.266638    0.303718     0.004505
AU1027   AU        0.355835    0.228590    0.301841     0.007504
PT1028   PT        0.355812    0.266987    0.340995     0.004505
AU1029   AU        0.393693    0.230247    0.340539     0.007504
AU1030   AU        0.390561    0.268002    0.302195     0.007504
AU1031   AU        0.429778    0.228602    0.300490     0.007504
AU1032   AU        0.429111    0.265486    0.341014     0.007504
PT1033   PT        0.462083    0.228099    0.341623     0.004505
AU1034   AU        0.464009    0.266334    0.300587     0.007504
AU1035   AU        0.500439    0.229576    0.303102     0.007504
AU1036   AU        0.499685    0.266643    0.342659     0.007504
AU1037   AU        0.537113    0.227451    0.340954     0.007504
AU1038   AU        0.537115    0.265960    0.302235     0.007504
PT1039   PT        0.572589    0.230098    0.300417     0.004505
AU1040   AU        0.571467    0.267374    0.341131     0.007504
PT1041   PT        0.605203    0.228653    0.340330     0.004505
AU1042   AU        0.609573    0.268475    0.300792     0.007504
AU1043   AU        0.643553    0.230547    0.302240     0.007504
PT1044   PT        0.640852    0.267859    0.339696     0.004505
AU1045   AU        0.679667    0.229970    0.341560     0.007504
AU1046   AU        0.680660    0.265447    0.303242     0.007504
AU1047   AU        0.714799    0.229466    0.301444     0.007504
PT1048   PT        0.713212    0.267443    0.340744     0.004505
AU1049   AU        0.747981    0.229659    0.341460     0.007504
AU1050   AU        0.748223    0.268964    0.302834     0.007504
PT1051   PT        0.782509    0.269020    0.342117     0.004505
AU1052   AU        0.038234    0.307069    0.340739     0.007504
PT1053   PT        0.036815    0.348599    0.302518     0.004505
PT1054   PT        0.072518    0.308168    0.302733     0.004505
AU1055   AU        0.071197    0.347168    0.339753     0.007504
PT1056   PT        0.105095    0.309464    0.339533     0.004505
AU1057   AU        0.105815    0.346715    0.302063     0.007504
PT1058   PT        0.140761    0.306304    0.303076     0.004505
PT1059   PT        0.140091    0.347293    0.339852     0.004505
PT1060   PT        0.176909    0.306455    0.340668     0.004505
AU1061   AU        0.176337    0.344221    0.300141     0.007504
AU1062   AU        0.211959    0.304968    0.302242     0.007504
PT1063   PT        0.213484    0.345571    0.339674     0.004505
PT1064   PT        0.248172    0.308124    0.341867     0.004505
PT1065   PT        0.248126    0.342434    0.301433     0.004505
AU1066   AU        0.283297    0.305985    0.301632     0.007504
AU1067   AU        0.282489    0.345041    0.340500     0.007504
AU1068   AU        0.319927    0.305201    0.342989     0.007504
AU1069   AU        0.318170    0.342427    0.303819     0.007504
PT1070   PT        0.357245    0.304247    0.302606     0.004505
PT1071   PT        0.355511    0.343204    0.342973     0.004505
AU1072   AU        0.392783    0.304320    0.340922     0.007504
AU1073   AU        0.393693    0.343185    0.303154     0.007504
PT1074   PT        0.428258    0.304711    0.300877     0.004505
AU1075   AU        0.428938    0.341746    0.341401     0.007504
PT1076   PT        0.466462    0.306105    0.342016     0.004505
AU1077   AU        0.463490    0.344079    0.303973     0.007504
AU1078   AU        0.501698    0.304454    0.301956     0.007504
AU1079   AU        0.500882    0.345864    0.343127     0.007504
AU1080   AU        0.537221    0.306788    0.341980     0.007504
AU1081   AU        0.535466    0.343592    0.301690     0.007504
AU1082   AU        0.572436    0.305900    0.302244     0.007504
AU1083   AU        0.571531    0.344405    0.340187     0.007504
AU1084   AU        0.605944    0.305636    0.344607     0.007504
PT1085   PT        0.608033    0.344287    0.301621     0.004505
AU1086   AU        0.645330    0.305494    0.301724     0.007504
PT1087   PT        0.642637    0.342076    0.340484     0.004505
AU1088   AU        0.679419    0.305147    0.340714     0.007504
PT1089   PT        0.678709    0.343655    0.300304     0.004505
PT1090   PT        0.714409    0.305153    0.301288     0.004505
AU1091   AU        0.714252    0.346274    0.339511     0.007504
AU1092   AU        0.748569    0.307216    0.340599     0.007504
AU1093   AU        0.749143    0.344317    0.302182     0.007504
PT1094   PT        0.783323    0.304735    0.303472     0.004505
PT1095   PT        0.783977    0.345731    0.339803     0.004505
PT1096   PT        0.816154    0.306404    0.340542     0.004505
PT1097   PT        0.818295    0.344085    0.301672     0.004505
PT1098   PT        0.037666    0.385942    0.340840     0.004505
PT1099   PT        0.038815    0.422007    0.302634     0.004505
AU1100   AU        0.072124    0.386181    0.301548     0.007504
AU1101   AU        0.072717    0.424146    0.341894     0.007504
AU1102   AU        0.105107    0.385036    0.341247     0.007504
AU1103   AU        0.105944    0.424806    0.300789     0.007504
AU1104   AU        0.140045    0.386026    0.303254     0.007504
AU1105   AU        0.140459    0.424757    0.341213     0.007504
PT1106   PT        0.176603    0.384048    0.339150     0.004505
PT1107   PT        0.175715    0.422965    0.304424     0.004505
AU1108   AU        0.213811    0.383198    0.303406     0.007504
AU1109   AU        0.211746    0.424956    0.340752     0.007504
AU1110   AU        0.248230    0.383807    0.342028     0.007504
AU1111   AU        0.247659    0.421852    0.302104     0.007504
PT1112   PT        0.283430    0.380313    0.301918     0.004505
AU1113   AU        0.283178    0.420897    0.339783     0.007504
AU1114   AU        0.320666    0.380460    0.341014     0.007504
AU1115   AU        0.319064    0.413778    0.303735     0.007504
PT1116   PT        0.357746    0.378638    0.302687     0.004505
AU1117   AU        0.354781    0.414819    0.340652     0.007504
AU1118   AU        0.393570    0.381555    0.339807     0.007504
AU1119   AU        0.393415    0.418006    0.302593     0.007504
AU1120   AU        0.429297    0.382971    0.302402     0.007504
AU1121   AU        0.427997    0.420892    0.340772     0.007504
AU1122   AU        0.462535    0.382156    0.340456     0.007504
AU1123   AU        0.463611    0.420099    0.303906     0.007504
AU1124   AU        0.499311    0.381156    0.302873     0.007504
PT1125   PT        0.498594    0.421317    0.342622     0.004505
PT1126   PT        0.535030    0.383674    0.341994     0.004505
PT1127   PT        0.533233    0.419276    0.305256     0.004505
PT1128   PT        0.573426    0.384123    0.303456     0.004505
AU1129   AU        0.569813    0.421375    0.342746     0.007504
PT1130   PT        0.604597    0.382822    0.342222     0.004505
PT1131   PT        0.609195    0.421734    0.301865     0.004505
AU1132   AU        0.644222    0.383346    0.300912     0.007504
AU1133   AU        0.645364    0.423956    0.338713     0.007504
AU1134   AU        0.679612    0.386168    0.340183     0.007504
AU1135   AU        0.680465    0.420170    0.299973     0.007504
AU1136   AU        0.714230    0.381975    0.301305     0.007504
PT1137   PT        0.715913    0.422586    0.338670     0.004505
PT1138   PT        0.749732    0.383564    0.337309     0.004505
PT1139   PT        0.749894    0.422364    0.299969     0.004505
PT1140   PT        0.784761    0.384507    0.300712     0.004505
PT1141   PT        0.783421    0.421566    0.340798     0.004505
AU1142   AU        0.818561    0.383542    0.340551     0.007504
AU1143   AU        0.818355    0.421502    0.300327     0.007504
PT1144   PT        0.038877    0.462142    0.344075     0.004505
PT1145   PT        0.038845    0.502760    0.301014     0.004505
AU1146   AU        0.070513    0.462670    0.302183     0.007504
PT1147   PT        0.072695    0.501145    0.340058     0.004505
PT1148   PT        0.105967    0.462781    0.341861     0.004505
PT1149   PT        0.104831    0.499482    0.301298     0.004505
AU1150   AU        0.141822    0.461200    0.301088     0.007504
AU1151   AU        0.139240    0.501027    0.337970     0.007504
PT1152   PT        0.176981    0.462296    0.342231     0.004505
AU1153   AU        0.176781    0.501215    0.303574     0.007504
AU1154   AU        0.211478    0.461726    0.301784     0.007504
PT1155   PT        0.212401    0.501816    0.344866     0.004505
AU1156   AU        0.248940    0.462384    0.341977     0.007504
AU1157   AU        0.249257    0.500596    0.302737     0.007504
AU1158   AU        0.285323    0.465152    0.302815     0.007504
PT1159   PT        0.284129    0.506580    0.341062     0.004505
AU1160   AU        0.319979    0.454146    0.338855     0.007504
AU1161   AU        0.317617    0.504251    0.299362     0.007504
AU1162   AU        0.356543    0.469853    0.301714     0.007504
AU1163   AU        0.359665    0.504302    0.340792     0.007504
AU1164   AU        0.394911    0.460122    0.339620     0.007504
PT1165   PT        0.393652    0.503072    0.301807     0.004505
AU1166   AU        0.428260    0.460010    0.300106     0.007504
AU1167   AU        0.428337    0.501378    0.340588     0.007504
AU1168   AU        0.461188    0.461326    0.340254     0.007504
AU1169   AU        0.465026    0.502480    0.303686     0.007504
AU1170   AU        0.496445    0.457944    0.303915     0.007504
AU1171   AU        0.499545    0.501263    0.343725     0.007504
AU1172   AU        0.533667    0.458155    0.344722     0.007504
AU1173   AU        0.537697    0.504470    0.298455     0.007504
AU1174   AU        0.573947    0.464542    0.298261     0.007504
AU1175   AU        0.575119    0.500583    0.341544     0.007504
AU1176   AU        0.607950    0.459862    0.338468     0.007504
AU1177   AU        0.608556    0.497977    0.302992     0.007504
PT1178   PT        0.644513    0.458069    0.300284     0.004505
PT1179   PT        0.643367    0.501173    0.340954     0.004505
AU1180   AU        0.679365    0.460248    0.339479     0.007504
PT1181   PT        0.680500    0.498690    0.301422     0.004505
AU1182   AU        0.714187    0.460346    0.300060     0.007504
PT1183   PT        0.715296    0.499626    0.338473     0.004505
PT1184   PT        0.750096    0.460925    0.338594     0.004505
AU1185   AU        0.748938    0.498934    0.299894     0.007504
AU1186   AU        0.783840    0.462775    0.301555     0.007504
PT1187   PT        0.782890    0.501747    0.338292     0.004505
AU1188   AU        0.818269    0.460107    0.342094     0.007504
AU1189   AU        0.819027    0.498961    0.304087     0.007504
AU1190   AU        0.039326    0.541333    0.339193     0.007504
PT1191   PT        0.038292    0.579291    0.302232     0.004505
PT1192   PT        0.071976    0.541283    0.302407     0.004505
AU1193   AU        0.071484    0.579945    0.341771     0.007504
PT1194   PT        0.105493    0.540527    0.338666     0.004505
PT1195   PT        0.106532    0.578910    0.300523     0.004505
AU1196   AU        0.141909    0.540251    0.300463     0.007504
PT1197   PT        0.142388    0.576021    0.340542     0.004505
AU1198   AU        0.175190    0.537029    0.340964     0.007504
PT1199   PT        0.177002    0.579435    0.302545     0.004505
PT1200   PT        0.213026    0.540701    0.302229     0.004505
AU1201   AU        0.213186    0.580773    0.339271     0.007504
AU1202   AU        0.246707    0.539142    0.341454     0.007504
AU1203   AU        0.249423    0.579559    0.302750     0.007504
AU1204   AU        0.282866    0.541529    0.301096     0.007504
PT1205   PT        0.282321    0.578992    0.342173     0.004505
AU1206   AU        0.320798    0.542775    0.338671     0.007504
AU1207   AU        0.320694    0.577539    0.300957     0.007504
AU1208   AU        0.357308    0.540881    0.300372     0.007504
PT1209   PT        0.357007    0.578036    0.337812     0.004505
AU1210   AU        0.393141    0.540964    0.340765     0.007504
AU1211   AU        0.393788    0.580295    0.301159     0.007504
AU1212   AU        0.426755    0.541092    0.301705     0.007504
AU1213   AU        0.427716    0.577536    0.341256     0.007504
AU1214   AU        0.462895    0.540705    0.340739     0.007504
AU1215   AU        0.464776    0.579540    0.302057     0.007504
AU1216   AU        0.501628    0.538413    0.302275     0.007504
PT1217   PT        0.496494    0.577610    0.340917     0.004505
AU1218   AU        0.537916    0.536293    0.341002     0.007504
AU1219   AU        0.536135    0.576003    0.301394     0.007504
AU1220   AU        0.572723    0.538829    0.302365     0.007504
PT1221   PT        0.569605    0.575731    0.342279     0.004505
AU1222   AU        0.609157    0.540046    0.338400     0.007504
PT1223   PT        0.608757    0.575472    0.301344     0.004505
PT1224   PT        0.645244    0.539097    0.300086     0.004505
PT1225   PT        0.644341    0.576072    0.338137     0.004505
AU1226   AU        0.680579    0.538556    0.340646     0.007504
AU1227   AU        0.679258    0.576066    0.303593     0.007504
PT1228   PT        0.715694    0.538962    0.302353     0.004505
AU1229   AU        0.715785    0.580551    0.340469     0.007504
PT1230   PT        0.749601    0.540379    0.341853     0.004505
PT1231   PT        0.749696    0.578620    0.303832     0.004505
PT1232   PT        0.784695    0.538548    0.303289     0.004505
AU1233   AU        0.784241    0.579933    0.340474     0.007504
PT1234   PT        0.819373    0.540398    0.341678     0.004505
PT1235   PT        0.817007    0.577728    0.302691     0.004505
PT1236   PT        0.037392    0.617320    0.342047     0.004505
PT1237   PT        0.073094    0.615114    0.302585     0.004505
AU1238   AU        0.072443    0.655301    0.340745     0.007504
PT1239   PT        0.107063    0.615620    0.341494     0.004505
PT1240   PT        0.108397    0.655865    0.301825     0.004505
AU1241   AU        0.140795    0.616103    0.300604     0.007504
PT1242   PT        0.141583    0.653786    0.341689     0.004505
AU1243   AU        0.174381    0.617745    0.340237     0.007504
AU1244   AU        0.178163    0.655229    0.302126     0.007504
PT1245   PT        0.213524    0.617857    0.301121     0.004505
AU1246   AU        0.211563    0.656213    0.340128     0.007504
AU1247   AU        0.249174    0.618398    0.339628     0.007504
AU1248   AU        0.247445    0.655305    0.301625     0.007504
AU1249   AU        0.286082    0.617168    0.302661     0.007504
AU1250   AU        0.282856    0.656032    0.337897     0.007504
AU1251   AU        0.320714    0.614400    0.340774     0.007504
AU1252   AU        0.322209    0.656439    0.300909     0.007504
AU1253   AU        0.357238    0.617715    0.300870     0.007504
AU1254   AU        0.355003    0.656235    0.341044     0.007504
AU1255   AU        0.390990    0.618073    0.340365     0.007504
AU1256   AU        0.393396    0.655664    0.302956     0.007504
AU1257   AU        0.427344    0.617985    0.303412     0.007504
PT1258   PT        0.428287    0.654524    0.342643     0.004505
AU1259   AU        0.462839    0.619262    0.340967     0.007504
AU1260   AU        0.463229    0.655447    0.302237     0.007504
PT1261   PT        0.498754    0.618284    0.303826     0.004505
PT1262   PT        0.499857    0.656637    0.339820     0.004505
PT1263   PT        0.534374    0.615222    0.342612     0.004505
PT1264   PT        0.535162    0.656035    0.302423     0.004505
PT1265   PT        0.574228    0.616838    0.299840     0.004505
AU1266   AU        0.571020    0.655301    0.341161     0.007504
AU1267   AU        0.607444    0.618872    0.341985     0.007504
AU1268   AU        0.608425    0.654862    0.301734     0.007504
PT1269   PT        0.644433    0.617322    0.304315     0.004505
PT1270   PT        0.640960    0.657130    0.340085     0.004505
PT1271   PT        0.679676    0.615969    0.340276     0.004505
PT1272   PT        0.681123    0.653577    0.303000     0.004505
AU1273   AU        0.714733    0.616229    0.301495     0.007504
AU1274   AU        0.715111    0.655436    0.341858     0.007504
PT1275   PT        0.749569    0.617970    0.342062     0.004505
PT1276   PT        0.748212    0.653115    0.302168     0.004505
PT1277   PT        0.783188    0.616576    0.301859     0.004505
PT1278   PT        0.783472    0.653104    0.341411     0.004505
PT1279   PT        0.818942    0.614764    0.341585     0.004505
PT1280   PT        0.107466    0.694087    0.342180     0.004505
AU1281   AU        0.108239    0.729275    0.300882     0.007504
AU1282   AU        0.141962    0.692871    0.302572     0.007504
PT1283   PT        0.142234    0.731706    0.340246     0.004505
AU1284   AU        0.175944    0.694781    0.340302     0.007504
PT1285   PT        0.177051    0.730677    0.301403     0.004505
PT1286   PT        0.213462    0.694390    0.300251     0.004505
AU1287   AU        0.211893    0.731924    0.340309     0.007504
PT1288   PT        0.249641    0.694730    0.340609     0.004505
AU1289   AU        0.247861    0.733060    0.300879     0.007504
PT1290   PT        0.285838    0.697092    0.302163     0.004505
AU1291   AU        0.285751    0.734290    0.341956     0.007504
AU1292   AU        0.320767    0.694730    0.341178     0.007504
AU1293   AU        0.320922    0.732470    0.300625     0.007504
AU1294   AU        0.357839    0.693256    0.301105     0.007504
AU1295   AU        0.355046    0.734203    0.341388     0.007504
AU1296   AU        0.391117    0.694091    0.339463     0.007504
AU1297   AU        0.392523    0.733269    0.299803     0.007504
AU1298   AU        0.429377    0.694352    0.301637     0.007504
AU1299   AU        0.427830    0.733581    0.341171     0.007504
AU1300   AU        0.464835    0.693389    0.339581     0.007504
PT1301   PT        0.464351    0.730823    0.302705     0.004505
AU1302   AU        0.499485    0.695096    0.302264     0.007504
AU1303   AU        0.499934    0.734410    0.341307     0.007504
AU1304   AU        0.538243    0.695608    0.341605     0.007504
PT1305   PT        0.535712    0.734810    0.303152     0.004505
PT1306   PT        0.571810    0.695740    0.305234     0.004505
AU1307   AU        0.571015    0.734705    0.339961     0.007504
AU1308   AU        0.605740    0.694261    0.340787     0.007504
PT1309   PT        0.605508    0.733031    0.301183     0.004505
PT1310   PT        0.642050    0.696542    0.300909     0.004505
PT1311   PT        0.642795    0.732126    0.341341     0.004505
AU1312   AU        0.678342    0.691998    0.341243     0.007504
AU1313   AU        0.677930    0.731358    0.303230     0.007504
PT1314   PT        0.714803    0.695458    0.303997     0.004505
PT1315   PT        0.714216    0.731159    0.343312     0.004505
AU1316   AU        0.749129    0.693120    0.342358     0.007504
PT1317   PT        0.748359    0.731781    0.303038     0.004505
AU1318   AU        0.143309    0.767565    0.300753     0.007504
AU1319   AU        0.178489    0.769538    0.340277     0.007504
PT1320   PT        0.178120    0.806358    0.302210     0.004505
PT1321   PT        0.213309    0.771242    0.302165     0.004505
AU1322   AU        0.214009    0.807284    0.340890     0.007504
AU1323   AU        0.248647    0.770170    0.340690     0.007504
PT1324   PT        0.249085    0.807293    0.302404     0.004505
AU1325   AU        0.285459    0.770370    0.299728     0.007504
PT1326   PT        0.284942    0.809187    0.341471     0.004505
PT1327   PT        0.320713    0.770215    0.339250     0.004505
PT1328   PT        0.319993    0.808696    0.302640     0.004505
PT1329   PT        0.357035    0.770800    0.301667     0.004505
PT1330   PT        0.354614    0.809182    0.339411     0.004505
AU1331   AU        0.391320    0.771846    0.340545     0.007504
PT1332   PT        0.391887    0.808570    0.300930     0.004505
AU1333   AU        0.427277    0.771219    0.301017     0.007504
AU1334   AU        0.428238    0.810489    0.340868     0.007504
AU1335   AU        0.463913    0.771478    0.339566     0.007504
PT1336   PT        0.464608    0.808085    0.303023     0.004505
AU1337   AU        0.501766    0.771817    0.300791     0.007504
PT1338   PT        0.498574    0.809080    0.340934     0.004505
PT1339   PT        0.535926    0.771425    0.339167     0.004505
AU1340   AU        0.537081    0.809467    0.301870     0.007504
PT1341   PT        0.571761    0.771262    0.302781     0.004505
PT1342   PT        0.571069    0.807257    0.340565     0.004505
PT1343   PT        0.606688    0.769264    0.341994     0.004505
PT1344   PT        0.607314    0.805732    0.300364     0.004505
PT1345   PT        0.641669    0.768599    0.302813     0.004505
PT1346   PT        0.642301    0.807204    0.340132     0.004505
PT1347   PT        0.678248    0.768436    0.341186     0.004505
AU1348   AU        0.676468    0.804932    0.303702     0.007504
PT1349   PT        0.712583    0.768053    0.302882     0.004505
PT1350   PT        0.249654    0.845533    0.341206     0.004505
PT1351   PT        0.285506    0.845847    0.302750     0.004505
PT1352   PT        0.283279    0.883033    0.341417     0.004505
PT1353   PT        0.320013    0.846378    0.338888     0.004505
AU1354   AU        0.319319    0.882232    0.302105     0.007504
PT1355   PT        0.355139    0.845696    0.300073     0.004505
PT1356   PT        0.355402    0.881820    0.338561     0.004505
AU1357   AU        0.392759    0.847291    0.338108     0.007504
PT1358   PT        0.393206    0.884292    0.301475     0.004505
AU1359   AU        0.428366    0.845411    0.300757     0.007504
AU1360   AU        0.427981    0.882869    0.339852     0.007504
PT1361   PT        0.464010    0.846957    0.338076     0.004505
PT1362   PT        0.464688    0.883448    0.301129     0.004505
PT1363   PT        0.500482    0.844775    0.302362     0.004505
PT1364   PT        0.500226    0.883447    0.339473     0.004505
PT1365   PT        0.534403    0.846575    0.340479     0.004505
PT1366   PT        0.537213    0.883635    0.301651     0.004505
PT1367   PT        0.572040    0.844126    0.302111     0.004505
PT1368   PT        0.572301    0.883118    0.339744     0.004505
AU1369   AU        0.605782    0.844761    0.340386     0.007504
PT1370   PT        0.248301    0.040459    0.381919     0.004505
PT1371   PT        0.283108    0.042185    0.419602     0.004505
PT1372   PT        0.319306    0.041170    0.380105     0.004505
PT1373   PT        0.356591    0.039440    0.417751     0.004505
AU1374   AU        0.392831    0.003532    0.419533     0.007504
PT1375   PT        0.391937    0.040288    0.381153     0.004505
PT1376   PT        0.426143    0.003815    0.379511     0.004505
AU1377   AU        0.426113    0.038684    0.418596     0.007504
PT1378   PT        0.461145    0.000769    0.420936     0.004505
PT1379   PT        0.462013    0.039047    0.382506     0.004505
AU1380   AU        0.497692    0.039169    0.418841     0.007504
PT1381   PT        0.535646    0.042752    0.379428     0.004505
PT1382   PT        0.571416    0.041219    0.417706     0.004505
PT1383   PT        0.606894    0.040103    0.380416     0.004505
AU1384   AU        0.142696    0.116149    0.419669     0.007504
PT1385   PT        0.177408    0.078530    0.417751     0.004505
PT1386   PT        0.178295    0.116175    0.381926     0.004505
PT1387   PT        0.213455    0.079756    0.380802     0.004505
PT1388   PT        0.213196    0.114807    0.420078     0.004505
AU1389   AU        0.248318    0.078605    0.418919     0.007504
AU1390   AU        0.247296    0.114955    0.379595     0.007504
PT1391   PT        0.283636    0.078859    0.379248     0.004505
AU1392   AU        0.283517    0.114367    0.419083     0.007504
PT1393   PT        0.320825    0.078391    0.418485     0.004505
PT1394   PT        0.319829    0.113942    0.381080     0.004505
PT1395   PT        0.356015    0.078114    0.380404     0.004505
AU1396   AU        0.357104    0.115455    0.418281     0.007504
AU1397   AU        0.392339    0.077163    0.418407     0.007504
PT1398   PT        0.391719    0.114081    0.380039     0.004505
PT1399   PT        0.428444    0.077055    0.380655     0.004505
AU1400   AU        0.428293    0.113093    0.418648     0.007504
AU1401   AU        0.463610    0.075897    0.419610     0.007504
AU1402   AU        0.463761    0.114980    0.380119     0.007504
PT1403   PT        0.498940    0.077563    0.379399     0.004505
AU1404   AU        0.499656    0.113096    0.418291     0.007504
AU1405   AU        0.534209    0.076456    0.417183     0.007504
AU1406   AU        0.534590    0.112853    0.378898     0.007504
PT1407   PT        0.571726    0.077262    0.379253     0.004505
PT1408   PT        0.571472    0.113642    0.419653     0.004505
PT1409   PT        0.605913    0.078514    0.418379     0.004505
PT1410   PT        0.605318    0.114954    0.378240     0.004505
AU1411   AU        0.642614    0.078552    0.381368     0.007504
PT1412   PT        0.642083    0.114437    0.418986     0.004505
AU1413   AU        0.677705    0.077410    0.423042     0.007504
AU1414   AU        0.676915    0.116751    0.380414     0.007504
PT1415   PT        0.712676    0.115693    0.418302     0.004505
PT1416   PT        0.073425    0.193257    0.419236     0.004505
PT1417   PT        0.109405    0.153476    0.419443     0.004505
PT1418   PT        0.106450    0.193340    0.382900     0.004505
PT1419   PT        0.143923    0.154313    0.381104     0.004505
AU1420   AU        0.141882    0.193220    0.417651     0.007504
AU1421   AU        0.178415    0.151229    0.419521     0.007504
PT1422   PT        0.177279    0.190265    0.378454     0.004505
AU1423   AU        0.213638    0.153221    0.378719     0.007504
AU1424   AU        0.211919    0.189813    0.419623     0.007504
AU1425   AU        0.248420    0.151916    0.418571     0.007504
AU1426   AU        0.247067    0.191678    0.378099     0.007504
AU1427   AU        0.284564    0.150308    0.379154     0.007504
PT1428   PT        0.284758    0.190900    0.416970     0.004505
PT1429   PT        0.320062    0.153602    0.418763     0.004505
PT1430   PT        0.320832    0.188219    0.378529     0.004505
AU1431   AU        0.354593    0.151320    0.378135     0.007504
AU1432   AU        0.353409    0.190012    0.418779     0.007504
PT1433   PT        0.391219    0.153216    0.417094     0.004505
AU1434   AU        0.393905    0.190174    0.378731     0.007504
AU1435   AU        0.427824    0.151054    0.381514     0.007504
AU1436   AU        0.426514    0.190840    0.419769     0.007504
AU1437   AU        0.464224    0.152118    0.417774     0.007504
AU1438   AU        0.462003    0.190978    0.378983     0.007504
AU1439   AU        0.499091    0.151117    0.379862     0.007504
AU1440   AU        0.500084    0.190156    0.418317     0.007504
AU1441   AU        0.535172    0.152107    0.418954     0.007504
AU1442   AU        0.535739    0.188110    0.381241     0.007504
AU1443   AU        0.570135    0.152241    0.378216     0.007504
AU1444   AU        0.572045    0.189458    0.419049     0.007504
AU1445   AU        0.607156    0.151230    0.416900     0.007504
PT1446   PT        0.607516    0.191392    0.379816     0.004505
PT1447   PT        0.642531    0.152387    0.379958     0.004505
PT1448   PT        0.643421    0.189797    0.418853     0.004505
AU1449   AU        0.678977    0.153232    0.420061     0.007504
AU1450   AU        0.678858    0.191269    0.381064     0.007504
PT1451   PT        0.713082    0.153003    0.380578     0.004505
AU1452   AU        0.714342    0.190544    0.420283     0.007504
AU1453   AU        0.748302    0.154309    0.420186     0.007504
PT1454   PT        0.748003    0.190854    0.380487     0.004505
AU1455   AU        0.783897    0.192059    0.419505     0.007504
AU1456   AU        0.038584    0.269963    0.378154     0.007504
PT1457   PT        0.072328    0.230866    0.382997     0.004505
PT1458   PT        0.072075    0.267942    0.418465     0.004505
PT1459   PT        0.107333    0.229451    0.421379     0.004505
AU1460   AU        0.106434    0.268676    0.380039     0.007504
AU1461   AU        0.142086    0.230540    0.380775     0.007504
AU1462   AU        0.139137    0.268799    0.419937     0.007504
AU1463   AU        0.178501    0.229137    0.417772     0.007504
AU1464   AU        0.178290    0.267917    0.379637     0.007504
AU1465   AU        0.213293    0.228187    0.378497     0.007504
PT1466   PT        0.213124    0.266953    0.418280     0.004505
AU1467   AU        0.247830    0.228620    0.418762     0.007504
PT1468   PT        0.248683    0.265725    0.379274     0.004505
AU1469   AU        0.282830    0.228057    0.376966     0.007504
AU1470   AU        0.282981    0.271227    0.420860     0.007504
PT1471   PT        0.317888    0.228686    0.417562     0.004505
AU1472   AU        0.321774    0.267102    0.380429     0.007504
AU1473   AU        0.357743    0.229989    0.377420     0.007504
AU1474   AU        0.356528    0.268073    0.420726     0.007504
AU1475   AU        0.393452    0.231383    0.418201     0.007504
AU1476   AU        0.391937    0.266142    0.379928     0.007504
AU1477   AU        0.426308    0.229791    0.380504     0.007504
AU1478   AU        0.428267    0.266437    0.421141     0.007504
AU1479   AU        0.462430    0.227650    0.418168     0.007504
AU1480   AU        0.464160    0.265729    0.381750     0.007504
AU1481   AU        0.499236    0.226867    0.377943     0.007504
AU1482   AU        0.500644    0.267149    0.421062     0.007504
AU1483   AU        0.535591    0.229229    0.418655     0.007504
AU1484   AU        0.537214    0.267028    0.381562     0.007504
AU1485   AU        0.570581    0.227571    0.380542     0.007504
AU1486   AU        0.569875    0.270253    0.419565     0.007504
AU1487   AU        0.607753    0.227659    0.417678     0.007504
AU1488   AU        0.606285    0.264962    0.380820     0.007504
AU1489   AU        0.641279    0.227219    0.379862     0.007504
AU1490   AU        0.641471    0.267042    0.419529     0.007504
AU1491   AU        0.677953    0.226812    0.419098     0.007504
PT1492   PT        0.679737    0.265156    0.382719     0.004505
PT1493   PT        0.715072    0.227373    0.380984     0.004505
PT1494   PT        0.714582    0.266689    0.419265     0.004505
AU1495   AU        0.748911    0.229545    0.419089     0.007504
AU1496   AU        0.748612    0.267528    0.380066     0.007504
PT1497   PT        0.784508    0.230221    0.381111     0.004505
PT1498   PT        0.783619    0.268240    0.417863     0.004505
PT1499   PT        0.818832    0.268695    0.380215     0.004505
PT1500   PT        0.038455    0.306516    0.417931     0.004505
PT1501   PT        0.038724    0.345023    0.378754     0.004505
PT1502   PT        0.071780    0.307334    0.377910     0.004505
AU1503   AU        0.071255    0.345553    0.417488     0.007504
PT1504   PT        0.105300    0.308072    0.416831     0.004505
AU1505   AU        0.105533    0.344852    0.379754     0.007504
PT1506   PT        0.140005    0.307629    0.379198     0.004505
AU1507   AU        0.141306    0.343909    0.420699     0.007504
PT1508   PT        0.180445    0.306969    0.417901     0.004505
AU1509   AU        0.175701    0.345043    0.378561     0.007504
AU1510   AU        0.211553    0.307380    0.378095     0.007504
AU1511   AU        0.213492    0.345824    0.417282     0.007504
AU1512   AU        0.246066    0.305989    0.418176     0.007504
AU1513   AU        0.249525    0.345089    0.380571     0.007504
AU1514   AU        0.283206    0.306661    0.380241     0.007504
PT1515   PT        0.284971    0.345251    0.418529     0.004505
AU1516   AU        0.320518    0.304120    0.418395     0.007504
AU1517   AU        0.318945    0.344996    0.378904     0.007504
PT1518   PT        0.355580    0.306124    0.381054     0.004505
AU1519   AU        0.359148    0.343584    0.417330     0.007504
AU1520   AU        0.394367    0.305848    0.420301     0.007504
AU1521   AU        0.392389    0.342586    0.380504     0.007504
AU1522   AU        0.428999    0.304373    0.380027     0.007504
AU1523   AU        0.428695    0.343486    0.419816     0.007504
AU1524   AU        0.464928    0.304971    0.419857     0.007504
PT1525   PT        0.463451    0.342837    0.380547     0.004505
PT1526   PT        0.498251    0.304397    0.380796     0.004505
PT1527   PT        0.500691    0.347329    0.419618     0.004505
PT1528   PT        0.533053    0.306949    0.421049     0.004505
PT1529   PT        0.534087    0.344739    0.382791     0.004505
PT1530   PT        0.571835    0.303971    0.379303     0.004505
AU1531   AU        0.570641    0.345025    0.419311     0.007504
AU1532   AU        0.606181    0.306929    0.417577     0.007504
AU1533   AU        0.606668    0.345861    0.381853     0.007504
AU1534   AU        0.642930    0.305353    0.378770     0.007504
PT1535   PT        0.640928    0.344315    0.418609     0.004505
PT1536   PT        0.677551    0.304453    0.417268     0.004505
AU1537   AU        0.677854    0.344998    0.376716     0.007504
AU1538   AU        0.713667    0.302909    0.379316     0.007504
AU1539   AU        0.715171    0.343117    0.419896     0.007504
PT1540   PT        0.748385    0.304292    0.418452     0.004505
PT1541   PT        0.750259    0.346279    0.378067     0.004505
AU1542   AU        0.784557    0.305097    0.379305     0.007504
PT1543   PT        0.784763    0.345002    0.419112     0.004505
PT1544   PT        0.815588    0.306268    0.418283     0.004505
PT1545   PT        0.816832    0.343919    0.378342     0.004505
AU1546   AU        0.001593    0.425366    0.419424     0.007504
PT1547   PT        0.038284    0.385757    0.417847     0.004505
AU1548   AU        0.037717    0.424302    0.380848     0.007504
PT1549   PT        0.070660    0.384359    0.379113     0.004505
PT1550   PT        0.071475    0.423801    0.418786     0.004505
AU1551   AU        0.105550    0.385368    0.416920     0.007504
AU1552   AU        0.107105    0.422723    0.378957     0.007504
AU1553   AU        0.140527    0.383532    0.378788     0.007504
PT1554   PT        0.140204    0.423682    0.419018     0.004505
AU1555   AU        0.176467    0.383037    0.417268     0.007504
AU1556   AU        0.177907    0.424992    0.377314     0.007504
PT1557   PT        0.211458    0.384087    0.377949     0.004505
AU1558   AU        0.212870    0.423546    0.419709     0.007504
AU1559   AU        0.250358    0.384419    0.417867     0.007504
AU1560   AU        0.246784    0.421962    0.379332     0.007504
PT1561   PT        0.285294    0.383595    0.381592     0.004505
AU1562   AU        0.281863    0.425093    0.419905     0.007504
PT1563   PT        0.324041    0.380703    0.417482     0.004505
AU1564   AU        0.319382    0.417338    0.376748     0.007504
AU1565   AU        0.357427    0.380134    0.379731     0.007504
AU1566   AU        0.359965    0.419091    0.414400     0.007504
PT1567   PT        0.393502    0.382027    0.417698     0.004505
AU1568   AU        0.394929    0.419843    0.379026     0.007504
AU1569   AU        0.428186    0.380589    0.378071     0.007504
AU1570   AU        0.427060    0.422146    0.417605     0.007504
PT1571   PT        0.464172    0.383545    0.419501     0.004505
AU1572   AU        0.464033    0.421660    0.378315     0.007504
AU1573   AU        0.499899    0.385272    0.380567     0.007504
AU1574   AU        0.499251    0.422544    0.417983     0.007504
AU1575   AU        0.536706    0.384365    0.419644     0.007504
AU1576   AU        0.534022    0.422519    0.380763     0.007504
AU1577   AU        0.571132    0.381947    0.380315     0.007504
AU1578   AU        0.569583    0.421261    0.416842     0.007504
AU1579   AU        0.604688    0.383643    0.417201     0.007504
PT1580   PT        0.608351    0.424853    0.379784     0.004505
PT1581   PT        0.641493    0.384207    0.380753     0.004505
AU1582   AU        0.640341    0.424052    0.418273     0.007504
AU1583   AU        0.678775    0.382828    0.417198     0.007504
AU1584   AU        0.677432    0.422180    0.378023     0.007504
PT1585   PT        0.714366    0.385020    0.379063     0.004505
PT1586   PT        0.712318    0.421609    0.417714     0.004505
AU1587   AU        0.748853    0.383574    0.418854     0.007504
PT1588   PT        0.749951    0.424107    0.379730     0.004505
AU1589   AU        0.784084    0.384163    0.377366     0.007504
PT1590   PT        0.784423    0.420177    0.417289     0.004505
PT1591   PT        0.818723    0.383200    0.418205     0.004505
PT1592   PT        0.818022    0.422724    0.378881     0.004505
AU1593   AU        0.851097    0.424104    0.418305     0.007504
AU1594   AU        0.004519    0.461957    0.381883     0.007504
AU1595   AU        0.002475    0.498746    0.419530     0.007504
AU1596   AU        0.038134    0.462529    0.419178     0.007504
PT1597   PT        0.036422    0.501184    0.379352     0.004505
AU1598   AU        0.071985    0.460916    0.380320     0.007504
PT1599   PT        0.070457    0.500206    0.418284     0.004505
AU1600   AU        0.104890    0.460147    0.418854     0.007504
AU1601   AU        0.106295    0.500976    0.380415     0.007504
AU1602   AU        0.140477    0.462288    0.382053     0.007504
PT1603   PT        0.140581    0.501017    0.419762     0.004505
AU1604   AU        0.176077    0.462534    0.418410     0.007504
AU1605   AU        0.176548    0.501672    0.380742     0.007504
AU1606   AU        0.211256    0.461830    0.381437     0.007504
PT1607   PT        0.212601    0.501187    0.416649     0.004505
AU1608   AU        0.247861    0.462596    0.418341     0.007504
AU1609   AU        0.249486    0.501315    0.379573     0.007504
AU1610   AU        0.284148    0.456708    0.378314     0.007504
AU1611   AU        0.282985    0.502432    0.421119     0.007504
PT1612   PT        0.317666    0.467784    0.421449     0.004505
AU1613   AU        0.318563    0.507300    0.382247     0.007504
AU1614   AU        0.358893    0.452955    0.375793     0.007504
AU1615   AU        0.353677    0.503563    0.422566     0.007504
PT1616   PT        0.393718    0.458714    0.420428     0.004505
AU1617   AU        0.395206    0.501692    0.376772     0.007504
AU1618   AU        0.428186    0.461110    0.379613     0.007504
AU1619   AU        0.427579    0.499835    0.415409     0.007504
AU1620   AU        0.463214    0.461337    0.417713     0.007504
AU1621   AU        0.463108    0.498736    0.378519     0.007504
AU1622   AU        0.498817    0.460957    0.380507     0.007504
AU1623   AU        0.498686    0.497983    0.417083     0.007504
AU1624   AU        0.534829    0.459768    0.417533     0.007504
AU1625   AU        0.536370    0.496739    0.378802     0.007504
AU1626   AU        0.572539    0.460105    0.379208     0.007504
AU1627   AU        0.571504    0.499115    0.417238     0.007504
AU1628   AU        0.608341    0.463655    0.418045     0.007504
PT1629   PT        0.606551    0.501645    0.380699     0.004505
PT1630   PT        0.645241    0.461037    0.378158     0.004505
AU1631   AU        0.644019    0.502097    0.416932     0.007504
AU1632   AU        0.677106    0.458965    0.417913     0.007504
AU1633   AU        0.679018    0.501087    0.378815     0.007504
AU1634   AU        0.716496    0.461526    0.378091     0.007504
AU1635   AU        0.713832    0.499895    0.416860     0.007504
AU1636   AU        0.749660    0.459946    0.417653     0.007504
AU1637   AU        0.750566    0.500268    0.376783     0.007504
PT1638   PT        0.783461    0.463036    0.379119     0.004505
PT1639   PT        0.784552    0.501110    0.416022     0.004505
PT1640   PT        0.819323    0.462297    0.417809     0.004505
PT1641   PT        0.817982    0.500422    0.378717     0.004505
PT1642   PT        0.852789    0.463623    0.380938     0.004505
AU1643   AU        0.852536    0.499031    0.420398     0.007504
PT1644   PT        0.038227    0.536733    0.418698     0.004505
PT1645   PT        0.036472    0.580331    0.375786     0.004505
PT1646   PT        0.070739    0.539333    0.377432     0.004505
PT1647   PT        0.071689    0.576398    0.416748     0.004505
PT1648   PT        0.104915    0.539221    0.416676     0.004505
AU1649   AU        0.106457    0.578615    0.378696     0.007504
AU1650   AU        0.141414    0.539300    0.378700     0.007504
AU1651   AU        0.139998    0.578189    0.417255     0.007504
PT1652   PT        0.177211    0.538152    0.419233     0.004505
AU1653   AU        0.177561    0.580455    0.378796     0.007504
PT1654   PT        0.210553    0.539991    0.379514     0.004505
AU1655   AU        0.212038    0.576815    0.419707     0.007504
AU1656   AU        0.246607    0.541881    0.418021     0.007504
AU1657   AU        0.246139    0.577817    0.381103     0.007504
PT1658   PT        0.283072    0.542010    0.381874     0.004505
AU1659   AU        0.283222    0.580528    0.417689     0.007504
AU1660   AU        0.321139    0.540349    0.419577     0.007504
AU1661   AU        0.319145    0.578885    0.379603     0.007504
PT1662   PT        0.355681    0.542133    0.379241     0.004505
AU1663   AU        0.357235    0.579569    0.418475     0.007504
AU1664   AU        0.392712    0.541418    0.418117     0.007504
PT1665   PT        0.392389    0.580379    0.379167     0.004505
AU1666   AU        0.430360    0.539507    0.379979     0.007504
AU1667   AU        0.428338    0.577654    0.416727     0.007504
PT1668   PT        0.463096    0.539439    0.420727     0.004505
PT1669   PT        0.464331    0.577839    0.380476     0.004505
AU1670   AU        0.499816    0.538631    0.382609     0.007504
AU1671   AU        0.498675    0.579655    0.417300     0.007504
AU1672   AU        0.535567    0.537342    0.417114     0.007504
AU1673   AU        0.535810    0.576668    0.380646     0.007504
AU1674   AU        0.571419    0.536170    0.380449     0.007504
AU1675   AU        0.573429    0.578771    0.418896     0.007504
AU1676   AU        0.604993    0.539246    0.419439     0.007504
AU1677   AU        0.607459    0.576579    0.378043     0.007504
PT1678   PT        0.643726    0.540201    0.377235     0.004505
PT1679   PT        0.643651    0.577911    0.415303     0.004505
AU1680   AU        0.678743    0.538066    0.417754     0.007504
PT1681   PT        0.681046    0.579956    0.378480     0.004505
AU1682   AU        0.714675    0.538938    0.379775     0.007504
AU1683   AU        0.714075    0.577859    0.416506     0.007504
PT1684   PT        0.750099    0.542061    0.417336     0.004505
PT1685   PT        0.750787    0.579505    0.379380     0.004505
AU1686   AU        0.785496    0.539812    0.377350     0.007504
PT1687   PT        0.784592    0.579237    0.418228     0.004505
PT1688   PT        0.818069    0.538514    0.420132     0.004505
AU1689   AU        0.819307    0.578856    0.378202     0.007504
PT1690   PT        0.038361    0.617381    0.419035     0.004505
PT1691   PT        0.039068    0.655660    0.379861     0.004505
AU1692   AU        0.071828    0.617555    0.378049     0.007504
AU1693   AU        0.072990    0.655020    0.419262     0.007504
AU1694   AU        0.105641    0.616386    0.418740     0.007504
PT1695   PT        0.106701    0.656002    0.378135     0.004505
PT1696   PT        0.139994    0.616951    0.380935     0.004505
AU1697   AU        0.141749    0.657055    0.416819     0.007504
AU1698   AU        0.178289    0.617381    0.417981     0.007504
AU1699   AU        0.176420    0.656989    0.378658     0.007504
PT1700   PT        0.214258    0.617409    0.380370     0.004505
PT1701   PT        0.212584    0.657789    0.418587     0.004505
PT1702   PT        0.247831    0.617780    0.420342     0.004505
AU1703   AU        0.248281    0.656103    0.379690     0.007504
AU1704   AU        0.283713    0.615909    0.379360     0.007504
AU1705   AU        0.285539    0.657393    0.417436     0.007504
PT1706   PT        0.319239    0.616574    0.417588     0.004505
AU1707   AU        0.320870    0.656743    0.378159     0.007504
AU1708   AU        0.355962    0.615005    0.379589     0.007504
AU1709   AU        0.358125    0.652674    0.419619     0.007504
AU1710   AU        0.392547    0.617732    0.417903     0.007504
AU1711   AU        0.392210    0.654132    0.379230     0.007504
AU1712   AU        0.429363    0.616866    0.377919     0.007504
AU1713   AU        0.428234    0.656516    0.416839     0.007504
AU1714   AU        0.462950    0.616283    0.415973     0.007504
PT1715   PT        0.463838    0.656331    0.378787     0.004505
AU1716   AU        0.497748    0.615441    0.378664     0.007504
PT1717   PT        0.499229    0.654567    0.416990     0.004505
AU1718   AU        0.536997    0.616938    0.417474     0.007504
AU1719   AU        0.535350    0.653342    0.379601     0.007504
AU1720   AU        0.571245    0.614629    0.377871     0.007504
PT1721   PT        0.571905    0.652111    0.417652     0.004505
AU1722   AU        0.607244    0.617582    0.414199     0.007504
AU1723   AU        0.607515    0.657405    0.377488     0.007504
PT1724   PT        0.643966    0.618250    0.377143     0.004505
AU1725   AU        0.643441    0.654137    0.418173     0.007504
AU1726   AU        0.678018    0.616293    0.418908     0.007504
AU1727   AU        0.677015    0.656739    0.380225     0.007504
PT1728   PT        0.716961    0.617268    0.379125     0.004505
PT1729   PT        0.714187    0.656503    0.418480     0.004505
PT1730   PT        0.748346    0.616912    0.418209     0.004505
AU1731   AU        0.749587    0.655448    0.379579     0.007504
AU1732   AU        0.784281    0.617036    0.380137     0.007504
AU1733   AU        0.781967    0.654133    0.417597     0.007504
PT1734   PT        0.818577    0.616220    0.416377     0.004505
AU1735   AU        0.818890    0.653782    0.377592     0.007504
PT1736   PT        0.072812    0.694145    0.380669     0.004505
AU1737   AU        0.072719    0.731165    0.418379     0.007504
PT1738   PT        0.108635    0.693800    0.419315     0.004505
PT1739   PT        0.107857    0.731887    0.380806     0.004505
PT1740   PT        0.141157    0.694291    0.379301     0.004505
PT1741   PT        0.142153    0.731651    0.418334     0.004505
AU1742   AU        0.176126    0.693027    0.417656     0.007504
PT1743   PT        0.178492    0.731302    0.379840     0.004505
AU1744   AU        0.212734    0.692782    0.378531     0.007504
AU1745   AU        0.213112    0.730515    0.418956     0.007504
PT1746   PT        0.249891    0.695443    0.418127     0.004505
PT1747   PT        0.247847    0.730993    0.379499     0.004505
AU1748   AU        0.283953    0.694207    0.377116     0.007504
PT1749   PT        0.284143    0.733693    0.418629     0.004505
PT1750   PT        0.321253    0.691308    0.417321     0.004505
AU1751   AU        0.321430    0.734335    0.378761     0.007504
AU1752   AU        0.355826    0.694208    0.380867     0.007504
AU1753   AU        0.353876    0.732332    0.417604     0.007504
AU1754   AU        0.393582    0.692447    0.417979     0.007504
AU1755   AU        0.392149    0.731623    0.379900     0.007504
AU1756   AU        0.429382    0.690884    0.378715     0.007504
PT1757   PT        0.429251    0.731096    0.418237     0.004505
PT1758   PT        0.464893    0.694444    0.418813     0.004505
AU1759   AU        0.461712    0.733634    0.378916     0.007504
AU1760   AU        0.497984    0.694460    0.379032     0.007504
PT1761   PT        0.500331    0.734661    0.415618     0.004505
PT1762   PT        0.533723    0.694693    0.416850     0.004505
AU1763   AU        0.535858    0.732793    0.379468     0.007504
AU1764   AU        0.571233    0.691820    0.380094     0.007504
PT1765   PT        0.569914    0.730785    0.418842     0.004505
PT1766   PT        0.608123    0.694312    0.419136     0.004505
AU1767   AU        0.606801    0.730822    0.381038     0.007504
AU1768   AU        0.644097    0.694950    0.380202     0.007504
AU1769   AU        0.641869    0.732495    0.418034     0.007504
PT1770   PT        0.678591    0.694701    0.418570     0.004505
PT1771   PT        0.680241    0.730575    0.379680     0.004505
PT1772   PT        0.714753    0.692774    0.379371     0.004505
PT1773   PT        0.714506    0.729472    0.417406     0.004505
AU1774   AU        0.749659    0.693924    0.417277     0.007504
PT1775   PT        0.748406    0.731392    0.380984     0.004505
AU1776   AU        0.783070    0.692700    0.380411     0.007504
AU1777   AU        0.783525    0.733244    0.419259     0.007504
PT1778   PT        0.108580    0.769690    0.417335     0.004505
PT1779   PT        0.142145    0.769977    0.379666     0.004505
AU1780   AU        0.142481    0.806743    0.418527     0.007504
PT1781   PT        0.176998    0.771544    0.418603     0.004505
AU1782   AU        0.177310    0.806779    0.381128     0.007504
PT1783   PT        0.213013    0.770236    0.378839     0.004505
PT1784   PT        0.214261    0.808695    0.418482     0.004505
AU1785   AU        0.250664    0.772179    0.417693     0.007504
AU1786   AU        0.249005    0.809430    0.379213     0.007504
PT1787   PT        0.285489    0.770596    0.378429     0.004505
AU1788   AU        0.286001    0.810393    0.417991     0.007504
PT1789   PT        0.318483    0.772483    0.416977     0.004505
AU1790   AU        0.320189    0.808705    0.376910     0.007504
AU1791   AU        0.357350    0.772261    0.379063     0.007504
PT1792   PT        0.355838    0.809063    0.418308     0.004505
PT1793   PT        0.391147    0.771374    0.416255     0.004505
PT1794   PT        0.391524    0.811038    0.377023     0.004505
AU1795   AU        0.428634    0.770391    0.381714     0.007504
AU1796   AU        0.428007    0.809468    0.416651     0.007504
AU1797   AU        0.463808    0.771795    0.417974     0.007504
PT1798   PT        0.465082    0.808523    0.380244     0.004505
AU1799   AU        0.500405    0.770692    0.379619     0.007504
PT1800   PT        0.500133    0.811114    0.418261     0.004505
AU1801   AU        0.537105    0.771261    0.416581     0.007504
PT1802   PT        0.535185    0.809117    0.376037     0.004505
PT1803   PT        0.570195    0.770564    0.379389     0.004505
PT1804   PT        0.573181    0.809450    0.418039     0.004505
PT1805   PT        0.607108    0.770489    0.417309     0.004505
PT1806   PT        0.606552    0.808704    0.377884     0.004505
AU1807   AU        0.643236    0.769378    0.377993     0.007504
AU1808   AU        0.641954    0.807724    0.417984     0.007504
AU1809   AU        0.676938    0.768536    0.416553     0.007504
PT1810   PT        0.677739    0.807262    0.380016     0.004505
PT1811   PT        0.713204    0.769081    0.379639     0.004505
PT1812   PT        0.711942    0.808256    0.417990     0.004505
PT1813   PT        0.747996    0.768936    0.420584     0.004505
AU1814   AU        0.178456    0.844305    0.416871     0.007504
PT1815   PT        0.213852    0.844896    0.377339     0.004505
AU1816   AU        0.250024    0.845481    0.418489     0.007504
PT1817   PT        0.251100    0.883193    0.380968     0.004505
PT1818   PT        0.285089    0.845350    0.379124     0.004505
PT1819   PT        0.286025    0.883749    0.417034     0.004505
AU1820   AU        0.320088    0.846351    0.416357     0.007504
AU1821   AU        0.319055    0.883036    0.376376     0.007504
AU1822   AU        0.354147    0.846687    0.378862     0.007504
PT1823   PT        0.353143    0.884702    0.418221     0.004505
PT1824   PT        0.390535    0.846835    0.418319     0.004505
AU1825   AU        0.391662    0.882490    0.377163     0.007504
PT1826   PT        0.428931    0.846322    0.378319     0.004505
AU1827   AU        0.427743    0.882692    0.415542     0.007504
PT1828   PT        0.464082    0.847041    0.416778     0.004505
AU1829   AU        0.463213    0.883022    0.379539     0.007504
AU1830   AU        0.500423    0.846587    0.379261     0.007504
AU1831   AU        0.500295    0.883263    0.416929     0.007504
AU1832   AU        0.534796    0.848350    0.418885     0.007504
PT1833   PT        0.536272    0.881810    0.379326     0.004505
PT1834   PT        0.571969    0.844590    0.378382     0.004505
AU1835   AU        0.573422    0.881560    0.414910     0.007504
AU1836   AU        0.608198    0.846911    0.414902     0.007504
PT1837   PT        0.607539    0.882324    0.377132     0.004505
PT1838   PT        0.642176    0.844834    0.377842     0.004505
AU1839   AU        0.677374    0.844578    0.417892     0.007504
AU1840   AU        0.394469    0.920088    0.339329     0.007504
AU1841   AU        0.428135    0.921144    0.378959     0.007504
PT1842   PT        0.463696    0.919230    0.417636     0.004505
AU1843   AU        0.248018    0.041220    0.457818     0.007504
AU1844   AU        0.281711    0.040620    0.496631     0.007504
PT1845   PT        0.318344    0.039301    0.458049     0.004505
PT1846   PT        0.358677    0.003462    0.458268     0.004505
PT1847   PT        0.356725    0.039588    0.494050     0.004505
PT1848   PT        0.393510    0.003375    0.496041     0.004505
AU1849   AU        0.392273    0.040357    0.458712     0.007504
PT1850   PT        0.426523    0.002756    0.456319     0.004505
PT1851   PT        0.428797    0.039035    0.495037     0.004505
PT1852   PT        0.462806    0.000819    0.494796     0.004505
AU1853   AU        0.460752    0.039141    0.456985     0.007504
AU1854   AU        0.497642    0.003046    0.456758     0.007504
PT1855   PT        0.497351    0.039064    0.493902     0.004505
PT1856   PT        0.535334    0.038388    0.455616     0.004505
PT1857   PT        0.572174    0.040039    0.495746     0.004505
PT1858   PT        0.607780    0.041800    0.455808     0.004505
PT1859   PT        0.143752    0.116262    0.494997     0.004505
AU1860   AU        0.178632    0.079206    0.496443     0.007504
AU1861   AU        0.176408    0.114487    0.458649     0.007504
PT1862   PT        0.212138    0.078046    0.457187     0.004505
PT1863   PT        0.212654    0.116068    0.494914     0.004505
AU1864   AU        0.248718    0.077936    0.496042     0.007504
AU1865   AU        0.248537    0.113691    0.456758     0.007504
AU1866   AU        0.282936    0.075518    0.458004     0.007504
PT1867   PT        0.283583    0.113589    0.495269     0.004505
PT1868   PT        0.320714    0.077210    0.495720     0.004505
PT1869   PT        0.319430    0.114337    0.457083     0.004505
AU1870   AU        0.354856    0.076166    0.456425     0.007504
PT1871   PT        0.354822    0.113958    0.495294     0.004505
PT1872   PT        0.391778    0.077387    0.495429     0.004505
PT1873   PT        0.390916    0.113334    0.456586     0.004505
AU1874   AU        0.426675    0.077196    0.456232     0.007504
AU1875   AU        0.426569    0.114716    0.494676     0.007504
PT1876   PT        0.463582    0.076549    0.496671     0.004505
PT1877   PT        0.465387    0.115521    0.456890     0.004505
PT1878   PT        0.499445    0.077394    0.458776     0.004505
PT1879   PT        0.499251    0.113293    0.496652     0.004505
AU1880   AU        0.533059    0.075365    0.496147     0.007504
PT1881   PT        0.537019    0.112953    0.456916     0.004505
AU1882   AU        0.570947    0.075198    0.455883     0.007504
PT1883   PT        0.570796    0.113741    0.495375     0.004505
PT1884   PT        0.605364    0.077296    0.496272     0.004505
AU1885   AU        0.604916    0.114672    0.457824     0.007504
PT1886   PT        0.641500    0.078300    0.458320     0.004505
AU1887   AU        0.642026    0.115179    0.494740     0.007504
PT1888   PT        0.675379    0.078721    0.495542     0.004505
PT1889   PT        0.676283    0.116276    0.456617     0.004505
PT1890   PT        0.711760    0.115217    0.495668     0.004505
AU1891   AU        0.071667    0.192299    0.495029     0.007504
PT1892   PT        0.107580    0.153519    0.496426     0.004505
PT1893   PT        0.106647    0.190572    0.456307     0.004505
PT1894   PT        0.141258    0.152789    0.457459     0.004505
AU1895   AU        0.140403    0.191749    0.494702     0.007504
PT1896   PT        0.177355    0.152664    0.494483     0.004505
PT1897   PT        0.175042    0.191053    0.455490     0.004505
AU1898   AU        0.211815    0.151267    0.456919     0.007504
AU1899   AU        0.211331    0.189053    0.496881     0.007504
AU1900   AU        0.249013    0.151096    0.494198     0.007504
PT1901   PT        0.247056    0.191145    0.458042     0.004505
AU1902   AU        0.284671    0.151953    0.457217     0.007504
AU1903   AU        0.283455    0.190056    0.496568     0.007504
PT1904   PT        0.319319    0.151586    0.498820     0.004505
AU1905   AU        0.319294    0.190856    0.458652     0.007504
PT1906   PT        0.355991    0.152431    0.457397     0.004505
AU1907   AU        0.354603    0.190489    0.497154     0.007504
AU1908   AU        0.391122    0.152101    0.495404     0.007504
AU1909   AU        0.390715    0.191130    0.455224     0.007504
AU1910   AU        0.425988    0.151893    0.455352     0.007504
AU1911   AU        0.426503    0.188336    0.495067     0.007504
AU1912   AU        0.462522    0.149483    0.496847     0.007504
PT1913   PT        0.460399    0.188429    0.456354     0.004505
AU1914   AU        0.500506    0.150773    0.457777     0.007504
AU1915   AU        0.500313    0.189995    0.496177     0.007504
AU1916   AU        0.535633    0.150701    0.497103     0.007504
AU1917   AU        0.534637    0.192045    0.455855     0.007504
AU1918   AU        0.570574    0.151621    0.457244     0.007504
PT1919   PT        0.570943    0.188152    0.493811     0.004505
AU1920   AU        0.606312    0.150790    0.496941     0.007504
AU1921   AU        0.606647    0.191222    0.457689     0.007504
PT1922   PT        0.640607    0.151502    0.457159     0.004505
AU1923   AU        0.642556    0.189596    0.495914     0.007504
PT1924   PT        0.678766    0.151437    0.495826     0.004505
PT1925   PT        0.678210    0.190287    0.456304     0.004505
PT1926   PT        0.712932    0.153652    0.457148     0.004505
PT1927   PT        0.713075    0.191538    0.494743     0.004505
PT1928   PT        0.747860    0.153020    0.494536     0.004505
AU1929   AU        0.748936    0.190259    0.458448     0.007504
AU1930   AU        0.781433    0.191926    0.496098     0.007504
PT1931   PT        0.038791    0.269113    0.457169     0.004505
AU1932   AU        0.072690    0.230458    0.456824     0.007504
PT1933   PT        0.070891    0.271398    0.495832     0.004505
AU1934   AU        0.105234    0.229725    0.493861     0.007504
PT1935   PT        0.107098    0.266959    0.459132     0.004505
AU1936   AU        0.141211    0.229093    0.455937     0.007504
AU1937   AU        0.141124    0.269836    0.495738     0.007504
PT1938   PT        0.176734    0.226993    0.495641     0.004505
PT1939   PT        0.175345    0.269214    0.455754     0.004505
AU1940   AU        0.211283    0.228751    0.457539     0.007504
AU1941   AU        0.212183    0.267127    0.494313     0.007504
AU1942   AU        0.246651    0.228186    0.497066     0.007504
AU1943   AU        0.247258    0.264116    0.457722     0.007504
PT1944   PT        0.284221    0.229411    0.458454     0.004505
PT1945   PT        0.283465    0.269253    0.495734     0.004505
AU1946   AU        0.320582    0.229509    0.497621     0.007504
AU1947   AU        0.318494    0.267433    0.455752     0.007504
AU1948   AU        0.355365    0.230583    0.455903     0.007504
AU1949   AU        0.356925    0.266306    0.494927     0.007504
AU1950   AU        0.392255    0.229776    0.496396     0.007504
AU1951   AU        0.392148    0.268229    0.457083     0.007504
AU1952   AU        0.426087    0.229105    0.458110     0.007504
AU1953   AU        0.428707    0.267259    0.496462     0.007504
PT1954   PT        0.461902    0.226757    0.495094     0.004505
AU1955   AU        0.461726    0.267988    0.458689     0.007504
AU1956   AU        0.502266    0.230241    0.459343     0.007504
PT1957   PT        0.501225    0.270386    0.495716     0.004505
AU1958   AU        0.534111    0.229855    0.497093     0.007504
AU1959   AU        0.536966    0.267490    0.458520     0.007504
PT1960   PT        0.570856    0.228967    0.456733     0.004505
PT1961   PT        0.573035    0.264890    0.493584     0.004505
PT1962   PT        0.608595    0.229505    0.495997     0.004505
PT1963   PT        0.608517    0.265568    0.457201     0.004505
PT1964   PT        0.644013    0.228928    0.459753     0.004505
AU1965   AU        0.642440    0.267629    0.495509     0.007504
AU1966   AU        0.678151    0.229479    0.498251     0.007504
AU1967   AU        0.679060    0.266088    0.456778     0.007504
AU1968   AU        0.714388    0.227917    0.457731     0.007504
PT1969   PT        0.714227    0.267210    0.492611     0.004505
PT1970   PT        0.749260    0.229034    0.494664     0.004505
AU1971   AU        0.749500    0.267983    0.455392     0.007504
PT1972   PT        0.782878    0.228393    0.456336     0.004505
PT1973   PT        0.783072    0.267507    0.495474     0.004505
PT1974   PT        0.815353    0.268049    0.456779     0.004505
AU1975   AU        0.037068    0.308112    0.497971     0.007504
PT1976   PT        0.035847    0.347386    0.454969     0.004505
AU1977   AU        0.071745    0.307062    0.456200     0.007504
AU1978   AU        0.070678    0.347533    0.497918     0.007504
AU1979   AU        0.105035    0.308096    0.495581     0.007504
PT1980   PT        0.103581    0.346489    0.457209     0.004505
AU1981   AU        0.138573    0.307247    0.457049     0.007504
AU1982   AU        0.138807    0.345251    0.495078     0.007504
AU1983   AU        0.176772    0.306824    0.494454     0.007504
AU1984   AU        0.176897    0.346985    0.457211     0.007504
PT1985   PT        0.213369    0.305648    0.457397     0.004505
AU1986   AU        0.212319    0.346527    0.493544     0.007504
AU1987   AU        0.249112    0.305221    0.494462     0.007504
AU1988   AU        0.248338    0.345062    0.456785     0.007504
AU1989   AU        0.285179    0.309259    0.456609     0.007504
PT1990   PT        0.281259    0.346654    0.497059     0.004505
AU1991   AU        0.320837    0.304564    0.494984     0.007504
PT1992   PT        0.322912    0.342798    0.452720     0.004505
AU1993   AU        0.357396    0.304701    0.458190     0.007504
AU1994   AU        0.358778    0.342500    0.496017     0.007504
AU1995   AU        0.392575    0.304657    0.497287     0.007504
AU1996   AU        0.393300    0.344539    0.454680     0.007504
AU1997   AU        0.428551    0.306821    0.456841     0.007504
AU1998   AU        0.427858    0.344603    0.495760     0.007504
AU1999   AU        0.466785    0.307133    0.496084     0.007504
AU2000   AU        0.463991    0.346204    0.457719     0.007504
AU2001   AU        0.499660    0.306439    0.456666     0.007504
PT2002   PT        0.499914    0.344821    0.494806     0.004505
AU2003   AU        0.534368    0.308653    0.495935     0.007504
AU2004   AU        0.535118    0.346853    0.455161     0.007504
AU2005   AU        0.570652    0.307440    0.457086     0.007504
AU2006   AU        0.569159    0.345691    0.497058     0.007504
AU2007   AU        0.607504    0.307407    0.495483     0.007504
AU2008   AU        0.605355    0.346654    0.457537     0.007504
AU2009   AU        0.642544    0.306098    0.456996     0.007504
AU2010   AU        0.641558    0.345265    0.494301     0.007504
AU2011   AU        0.677139    0.307359    0.496761     0.007504
AU2012   AU        0.678192    0.342063    0.457468     0.007504
AU2013   AU        0.713249    0.304724    0.457358     0.007504
AU2014   AU        0.714550    0.344171    0.496227     0.007504
AU2015   AU        0.749458    0.305763    0.496161     0.007504
PT2016   PT        0.749365    0.343538    0.458647     0.004505
PT2017   PT        0.782701    0.305636    0.456249     0.004505
PT2018   PT        0.784668    0.342669    0.496526     0.004505
PT2019   PT        0.818336    0.303127    0.497032     0.004505
AU2020   AU        0.817059    0.343944    0.457662     0.007504
PT2021   PT        0.003323    0.388175    0.455774     0.004505
PT2022   PT        0.003769    0.423926    0.494695     0.004505
PT2023   PT        0.037410    0.387445    0.495493     0.004505
AU2024   AU        0.036477    0.423906    0.455302     0.007504
PT2025   PT        0.070928    0.384445    0.456368     0.004505
AU2026   AU        0.070350    0.423967    0.493901     0.007504
PT2027   PT        0.104832    0.385298    0.494752     0.004505
PT2028   PT        0.105890    0.422948    0.455795     0.004505
PT2029   PT        0.139805    0.385636    0.456960     0.004505
AU2030   AU        0.139815    0.421165    0.496528     0.007504
AU2031   AU        0.175980    0.382991    0.495245     0.007504
PT2032   PT        0.173490    0.421767    0.457888     0.004505
AU2033   AU        0.211420    0.384281    0.457744     0.007504
AU2034   AU        0.212158    0.422363    0.496728     0.007504
AU2035   AU        0.247575    0.385457    0.495519     0.007504
AU2036   AU        0.248820    0.423295    0.456249     0.007504
AU2037   AU        0.280354    0.386482    0.457934     0.007504
AU2038   AU        0.282635    0.426559    0.497283     0.007504
AU2039   AU        0.316483    0.387199    0.497798     0.007504
AU2040   AU        0.317001    0.425350    0.459700     0.007504
AU2041   AU        0.359512    0.381329    0.454454     0.007504
AU2042   AU        0.354695    0.424550    0.496762     0.007504
PT2043   PT        0.392257    0.385392    0.497296     0.004505
AU2044   AU        0.392332    0.422514    0.458342     0.007504
AU2045   AU        0.428127    0.383887    0.457012     0.007504
AU2046   AU        0.427889    0.423167    0.494594     0.007504
AU2047   AU        0.463895    0.384425    0.494893     0.007504
AU2048   AU        0.463138    0.423639    0.458391     0.007504
AU2049   AU        0.496585    0.384485    0.457173     0.007504
AU2050   AU        0.498346    0.421281    0.495883     0.007504
AU2051   AU        0.534079    0.384199    0.494279     0.007504
AU2052   AU        0.533896    0.422002    0.456787     0.007504
PT2053   PT        0.570191    0.384500    0.458318     0.004505
AU2054   AU        0.569301    0.423376    0.495504     0.007504
AU2055   AU        0.604650    0.384225    0.494732     0.007504
AU2056   AU        0.605203    0.420984    0.454699     0.007504
AU2057   AU        0.642729    0.384126    0.454774     0.007504
PT2058   PT        0.641553    0.422578    0.492859     0.004505
AU2059   AU        0.679675    0.382377    0.494134     0.007504
PT2060   PT        0.678224    0.422550    0.456996     0.004505
AU2061   AU        0.715006    0.382383    0.458772     0.007504
AU2062   AU        0.714390    0.420566    0.496143     0.007504
PT2063   PT        0.750897    0.379761    0.498534     0.004505
PT2064   PT        0.750206    0.422693    0.456018     0.004505
PT2065   PT        0.783171    0.385542    0.457485     0.004505
PT2066   PT        0.783548    0.419948    0.495837     0.004505
PT2067   PT        0.817889    0.381290    0.496407     0.004505
AU2068   AU        0.816627    0.421801    0.456286     0.007504
AU2069   AU        0.850672    0.384515    0.455914     0.007504
PT2070   PT        0.852615    0.382630    0.538405     0.004505
PT2071   PT        0.002985    0.461180    0.456487     0.004505
AU2072   AU        0.001343    0.497860    0.493108     0.007504
PT2073   PT        0.035372    0.462135    0.494702     0.004505
PT2074   PT        0.037139    0.498330    0.458528     0.004505
AU2075   AU        0.070440    0.462349    0.458503     0.007504
AU2076   AU        0.070250    0.500670    0.495527     0.007504
AU2077   AU        0.104622    0.460842    0.497932     0.007504
PT2078   PT        0.104873    0.499729    0.457185     0.004505
AU2079   AU        0.140756    0.461309    0.458619     0.007504
AU2080   AU        0.140429    0.501419    0.495217     0.007504
AU2081   AU        0.176115    0.463381    0.496276     0.007504
PT2082   PT        0.176929    0.499585    0.455343     0.004505
AU2083   AU        0.210727    0.460609    0.457647     0.007504
AU2084   AU        0.212559    0.499460    0.495696     0.007504
AU2085   AU        0.246193    0.460954    0.496901     0.007504
AU2086   AU        0.246617    0.501098    0.457008     0.007504
AU2087   AU        0.282646    0.464028    0.456085     0.007504
AU2088   AU        0.284904    0.501930    0.496033     0.007504
AU2089   AU        0.320207    0.465348    0.495857     0.007504
AU2090   AU        0.319322    0.502132    0.458770     0.007504
PT2091   PT        0.356205    0.461436    0.458176     0.004505
AU2092   AU        0.356669    0.500722    0.495657     0.007504
AU2093   AU        0.393105    0.462538    0.494315     0.007504
AU2094   AU        0.392861    0.500449    0.456491     0.007504
AU2095   AU        0.427552    0.461342    0.456441     0.007504
PT2096   PT        0.429420    0.500146    0.494321     0.004505
AU2097   AU        0.463610    0.461816    0.497701     0.007504
AU2098   AU        0.463262    0.499135    0.453130     0.007504
AU2099   AU        0.499645    0.461099    0.455088     0.007504
AU2100   AU        0.498970    0.501725    0.497293     0.007504
PT2101   PT        0.534080    0.462206    0.495143     0.004505
AU2102   AU        0.534829    0.497769    0.458192     0.007504
PT2103   PT        0.570798    0.462960    0.457956     0.004505
AU2104   AU        0.572237    0.499131    0.493925     0.007504
AU2105   AU        0.605954    0.460651    0.494396     0.007504
AU2106   AU        0.605129    0.498554    0.455475     0.007504
AU2107   AU        0.644423    0.462262    0.455241     0.007504
AU2108   AU        0.639247    0.499857    0.494583     0.007504
PT2109   PT        0.677447    0.461784    0.493992     0.004505
PT2110   PT        0.680008    0.500756    0.456095     0.004505
PT2111   PT        0.713737    0.460667    0.455648     0.004505
AU2112   AU        0.713124    0.500140    0.496895     0.007504
PT2113   PT        0.749762    0.463258    0.494008     0.004505
AU2114   AU        0.750011    0.500464    0.454644     0.007504
PT2115   PT        0.783654    0.460069    0.455065     0.004505
PT2116   PT        0.783190    0.502604    0.496060     0.004505
AU2117   AU        0.816500    0.460529    0.494217     0.007504
PT2118   PT        0.818171    0.499935    0.457198     0.004505
AU2119   AU        0.850091    0.460848    0.457051     0.007504
PT2120   PT        0.886306    0.495948    0.457310     0.004505
PT2121   PT        0.001017    0.536219    0.455623     0.004505
AU2122   AU        0.034850    0.538046    0.494387     0.007504
PT2123   PT        0.035833    0.574334    0.458418     0.004505
PT2124   PT        0.070575    0.537986    0.456801     0.004505
PT2125   PT        0.070679    0.579251    0.495536     0.004505
PT2126   PT        0.105349    0.540282    0.495213     0.004505
AU2127   AU        0.105198    0.579382    0.457223     0.007504
AU2128   AU        0.140274    0.539908    0.455098     0.007504
PT2129   PT        0.139889    0.578337    0.493484     0.004505
AU2130   AU        0.175305    0.539283    0.493720     0.007504
AU2131   AU        0.176190    0.579569    0.457591     0.007504
AU2132   AU        0.213817    0.540711    0.456761     0.007504
AU2133   AU        0.211576    0.578393    0.494094     0.007504
AU2134   AU        0.246083    0.539786    0.495036     0.007504
AU2135   AU        0.249546    0.578294    0.455607     0.007504
AU2136   AU        0.282043    0.539670    0.455900     0.007504
AU2137   AU        0.286274    0.580437    0.491403     0.007504
AU2138   AU        0.319195    0.539867    0.498475     0.007504
AU2139   AU        0.320187    0.577574    0.456263     0.007504
AU2140   AU        0.355561    0.539989    0.459364     0.007504
AU2141   AU        0.354309    0.578250    0.496282     0.007504
AU2142   AU        0.393270    0.539710    0.495332     0.007504
AU2143   AU        0.391886    0.577523    0.458907     0.007504
AU2144   AU        0.427270    0.540158    0.456778     0.007504
PT2145   PT        0.429166    0.578199    0.494712     0.004505
AU2146   AU        0.462643    0.538679    0.494351     0.007504
AU2147   AU        0.463000    0.577843    0.457568     0.007504
PT2148   PT        0.497742    0.540056    0.456215     0.004505
AU2149   AU        0.501625    0.579024    0.495329     0.007504
AU2150   AU        0.535285    0.538173    0.495078     0.007504
AU2151   AU        0.536718    0.579107    0.457293     0.007504
AU2152   AU        0.570211    0.538049    0.457889     0.007504
AU2153   AU        0.572046    0.579078    0.494220     0.007504
AU2154   AU        0.605226    0.539073    0.493581     0.007504
AU2155   AU        0.606605    0.577358    0.457708     0.007504
PT2156   PT        0.641711    0.537843    0.454729     0.004505
AU2157   AU        0.642478    0.578263    0.495378     0.007504
PT2158   PT        0.679543    0.539068    0.493286     0.004505
AU2159   AU        0.677831    0.579466    0.454697     0.007504
AU2160   AU        0.715095    0.540356    0.454542     0.007504
AU2161   AU        0.714450    0.577231    0.495083     0.007504
PT2162   PT        0.749571    0.539371    0.494682     0.004505
AU2163   AU        0.749736    0.580053    0.457221     0.007504
AU2164   AU        0.785050    0.539415    0.455987     0.007504
PT2165   PT        0.783494    0.577937    0.495537     0.004505
PT2166   PT        0.817971    0.538162    0.497005     0.004505
PT2167   PT        0.818765    0.579667    0.454817     0.004505
PT2168   PT        0.851386    0.535555    0.457749     0.004505
PT2169   PT        0.037794    0.617621    0.496832     0.004505
PT2170   PT        0.037935    0.658335    0.455337     0.004505
PT2171   PT        0.071542    0.617050    0.456688     0.004505
PT2172   PT        0.072432    0.655859    0.494995     0.004505
AU2173   AU        0.106872    0.618432    0.493901     0.007504
PT2174   PT        0.106169    0.655445    0.458070     0.004505
PT2175   PT        0.142125    0.616098    0.457408     0.004505
AU2176   AU        0.141103    0.657387    0.494430     0.007504
PT2177   PT        0.175687    0.618450    0.496978     0.004505
AU2178   AU        0.175542    0.653986    0.455910     0.007504
PT2179   PT        0.212722    0.617251    0.456886     0.004505
AU2180   AU        0.214031    0.654717    0.494501     0.007504
AU2181   AU        0.249332    0.618686    0.497147     0.007504
AU2182   AU        0.249913    0.656934    0.456218     0.007504
AU2183   AU        0.282899    0.617745    0.455991     0.007504
AU2184   AU        0.284563    0.657246    0.494679     0.007504
AU2185   AU        0.321172    0.617576    0.495271     0.007504
AU2186   AU        0.319785    0.655464    0.455862     0.007504
AU2187   AU        0.356022    0.617591    0.457903     0.007504
AU2188   AU        0.358152    0.655275    0.495638     0.007504
AU2189   AU        0.393214    0.616345    0.493989     0.007504
AU2190   AU        0.394843    0.654571    0.455174     0.007504
AU2191   AU        0.428401    0.616557    0.456188     0.007504
AU2192   AU        0.426567    0.654669    0.497422     0.007504
AU2193   AU        0.461177    0.618140    0.496676     0.007504
AU2194   AU        0.462016    0.656023    0.455962     0.007504
AU2195   AU        0.502546    0.617013    0.455483     0.007504
AU2196   AU        0.498980    0.656653    0.495069     0.007504
PT2197   PT        0.537410    0.617978    0.492957     0.004505
AU2198   AU        0.536884    0.655283    0.455909     0.007504
AU2199   AU        0.571883    0.617380    0.455525     0.007504
AU2200   AU        0.571201    0.655277    0.493096     0.007504
AU2201   AU        0.606260    0.615765    0.494265     0.007504
PT2202   PT        0.607086    0.656540    0.457579     0.004505
AU2203   AU        0.641551    0.617443    0.457757     0.007504
AU2204   AU        0.643128    0.657492    0.493940     0.007504
AU2205   AU        0.679473    0.615849    0.495396     0.007504
AU2206   AU        0.679803    0.655921    0.457093     0.007504
PT2207   PT        0.713669    0.615744    0.455683     0.004505
AU2208   AU        0.715071    0.653786    0.493962     0.007504
PT2209   PT        0.749312    0.616745    0.494558     0.004505
AU2210   AU        0.748542    0.656316    0.456467     0.007504
AU2211   AU        0.784220    0.618824    0.455615     0.007504
PT2212   PT        0.783069    0.651888    0.495830     0.004505
AU2213   AU        0.816539    0.614780    0.495673     0.007504
PT2214   PT        0.828673    0.659348    0.420207     0.004505
PT2215   PT        0.072149    0.695067    0.456509     0.004505
AU2216   AU        0.072594    0.732598    0.492559     0.007504
PT2217   PT        0.105857    0.693515    0.494626     0.004505
PT2218   PT        0.108149    0.732040    0.456223     0.004505
PT2219   PT        0.141256    0.694114    0.456809     0.004505
PT2220   PT        0.140590    0.732337    0.496834     0.004505
PT2221   PT        0.177315    0.693932    0.494663     0.004505
AU2222   AU        0.177228    0.734031    0.456560     0.007504
PT2223   PT        0.212085    0.692597    0.457586     0.004505
AU2224   AU        0.212222    0.733296    0.494695     0.007504
AU2225   AU        0.247184    0.695424    0.494501     0.007504
AU2226   AU        0.248505    0.733569    0.457190     0.007504
AU2227   AU        0.284390    0.693711    0.456936     0.007504
AU2228   AU        0.282973    0.731972    0.496110     0.007504
AU2229   AU        0.319172    0.696752    0.494568     0.007504
AU2230   AU        0.319751    0.732592    0.455938     0.007504
AU2231   AU        0.357547    0.693358    0.456290     0.007504
PT2232   PT        0.355634    0.733999    0.496501     0.004505
AU2233   AU        0.392778    0.692863    0.493546     0.007504
PT2234   PT        0.393162    0.732193    0.457639     0.004505
AU2235   AU        0.427946    0.692777    0.456506     0.007504
AU2236   AU        0.429313    0.732351    0.493171     0.007504
AU2237   AU        0.463357    0.693850    0.495102     0.007504
AU2238   AU        0.464557    0.732414    0.457027     0.007504
AU2239   AU        0.499545    0.695849    0.457420     0.007504
AU2240   AU        0.498336    0.732984    0.494739     0.007504
AU2241   AU        0.535330    0.695741    0.494895     0.007504
AU2242   AU        0.534452    0.732654    0.457379     0.007504
AU2243   AU        0.567918    0.693249    0.457884     0.007504
PT2244   PT        0.571171    0.731453    0.494332     0.004505
AU2245   AU        0.606193    0.694662    0.496930     0.007504
AU2246   AU        0.608360    0.730784    0.456807     0.007504
PT2247   PT        0.643853    0.695458    0.458339     0.004505
AU2248   AU        0.643589    0.730674    0.495565     0.007504
AU2249   AU        0.679316    0.692003    0.495195     0.007504
PT2250   PT        0.680062    0.730608    0.457066     0.004505
AU2251   AU        0.715784    0.693749    0.456029     0.007504
PT2252   PT        0.714344    0.730533    0.494074     0.004505
PT2253   PT        0.748136    0.692867    0.495594     0.004505
AU2254   AU        0.749036    0.730590    0.456248     0.007504
AU2255   AU        0.781923    0.693421    0.456800     0.007504
PT2256   PT        0.783393    0.729748    0.493105     0.004505
PT2257   PT        0.107577    0.770014    0.496452     0.004505
AU2258   AU        0.141963    0.770512    0.456821     0.007504
PT2259   PT        0.143232    0.808951    0.494048     0.004505
AU2260   AU        0.176935    0.769822    0.494347     0.007504
PT2261   PT        0.177627    0.807163    0.455950     0.004505
PT2262   PT        0.212785    0.770186    0.455180     0.004505
AU2263   AU        0.212957    0.808168    0.493217     0.007504
AU2264   AU        0.248152    0.770205    0.493441     0.007504
PT2265   PT        0.249962    0.810005    0.457427     0.004505
AU2266   AU        0.285151    0.772328    0.457861     0.007504
PT2267   PT        0.283597    0.807814    0.496086     0.004505
PT2268   PT        0.319464    0.770979    0.495353     0.004505
AU2269   AU        0.320420    0.809924    0.454945     0.007504
PT2270   PT        0.356937    0.770938    0.455696     0.004505
AU2271   AU        0.357104    0.810775    0.494930     0.007504
AU2272   AU        0.391653    0.769470    0.497465     0.007504
AU2273   AU        0.391768    0.810681    0.457586     0.007504
AU2274   AU        0.428002    0.770682    0.453967     0.007504
AU2275   AU        0.426578    0.808285    0.494276     0.007504
AU2276   AU        0.463778    0.772084    0.491764     0.007504
AU2277   AU        0.464758    0.808942    0.454899     0.007504
PT2278   PT        0.500218    0.771651    0.456293     0.004505
PT2279   PT        0.498746    0.807785    0.493147     0.004505
AU2280   AU        0.535902    0.771001    0.494787     0.007504
AU2281   AU        0.536204    0.809605    0.456279     0.007504
AU2282   AU        0.570997    0.770985    0.456524     0.007504
AU2283   AU        0.572044    0.808706    0.493555     0.007504
PT2284   PT        0.606508    0.768668    0.495004     0.004505
AU2285   AU        0.607431    0.807348    0.456858     0.007504
PT2286   PT        0.642620    0.771124    0.456965     0.004505
PT2287   PT        0.640661    0.807122    0.494733     0.004505
PT2288   PT        0.677690    0.769740    0.493625     0.004505
PT2289   PT        0.678955    0.807293    0.456686     0.004505
PT2290   PT        0.714021    0.767850    0.457015     0.004505
AU2291   AU        0.714150    0.806176    0.495277     0.007504
PT2292   PT        0.748909    0.767641    0.492754     0.004505
PT2293   PT        0.178469    0.846655    0.494614     0.004505
AU2294   AU        0.211622    0.845803    0.457012     0.007504
PT2295   PT        0.247619    0.846761    0.494957     0.004505
AU2296   AU        0.247063    0.881773    0.458433     0.007504
PT2297   PT        0.285972    0.846310    0.457324     0.004505
AU2298   AU        0.282955    0.883096    0.495199     0.007504
PT2299   PT        0.319888    0.846629    0.493582     0.004505
AU2300   AU        0.320055    0.883028    0.455033     0.007504
PT2301   PT        0.354578    0.848025    0.456872     0.004505
PT2302   PT        0.357292    0.883856    0.496148     0.004505
AU2303   AU        0.392383    0.847632    0.496095     0.007504
AU2304   AU        0.392441    0.883655    0.456363     0.007504
AU2305   AU        0.428473    0.847050    0.456334     0.007504
PT2306   PT        0.428489    0.882574    0.493652     0.004505
PT2307   PT        0.463694    0.845177    0.493853     0.004505
PT2308   PT        0.464838    0.883761    0.456190     0.004505
AU2309   AU        0.500307    0.845878    0.456176     0.007504
AU2310   AU        0.499292    0.883602    0.495224     0.007504
PT2311   PT        0.535849    0.846009    0.491288     0.004505
AU2312   AU        0.532695    0.884990    0.457063     0.007504
AU2313   AU        0.571844    0.846635    0.454834     0.007504
PT2314   PT        0.572585    0.881671    0.493861     0.004505
PT2315   PT        0.607108    0.845025    0.494675     0.004505
PT2316   PT        0.605954    0.883634    0.454952     0.004505
PT2317   PT        0.641145    0.845225    0.456259     0.004505
PT2318   PT        0.679122    0.844334    0.492558     0.004505
PT2319   PT        0.356605    0.919400    0.457521     0.004505
PT2320   PT        0.393431    0.921511    0.492887     0.004505
PT2321   PT        0.428586    0.920109    0.456599     0.004505
AU2322   AU        0.462688    0.921318    0.494577     0.007504
PT2323   PT        0.497800    0.923034    0.456514     0.004505
PT2324   PT        0.249814    0.041428    0.535939     0.004505
AU2325   AU        0.284169    0.042643    0.573186     0.007504
PT2326   PT        0.319748    0.040369    0.534580     0.004505
PT2327   PT        0.354182    0.040074    0.572969     0.004505
PT2328   PT        0.390368    0.039147    0.533392     0.004505
PT2329   PT        0.426863    0.002685    0.534400     0.004505
PT2330   PT        0.427247    0.042747    0.572740     0.004505
AU2331   AU        0.463196    0.039790    0.532796     0.007504
PT2332   PT        0.500173    0.040695    0.575585     0.004505
PT2333   PT        0.534427    0.039938    0.533876     0.004505
AU2334   AU        0.569913    0.040399    0.574158     0.007504
AU2335   AU        0.606179    0.040752    0.534731     0.007504
PT2336   PT        0.177602    0.117222    0.533518     0.004505
PT2337   PT        0.212536    0.079845    0.534641     0.004505
PT2338   PT        0.211155    0.115989    0.571986     0.004505
PT2339   PT        0.248893    0.080336    0.572088     0.004505
AU2340   AU        0.247254    0.115652    0.535184     0.007504
PT2341   PT        0.284805    0.077010    0.534104     0.004505
AU2342   AU        0.284655    0.116458    0.574560     0.007504
PT2343   PT        0.320471    0.077156    0.573041     0.004505
AU2344   AU        0.319318    0.113489    0.532742     0.007504
AU2345   AU        0.355635    0.075636    0.535408     0.007504
PT2346   PT        0.353910    0.114579    0.572442     0.004505
AU2347   AU        0.391457    0.077087    0.574007     0.007504
PT2348   PT        0.390914    0.113561    0.535790     0.004505
PT2349   PT        0.427829    0.077094    0.533357     0.004505
PT2350   PT        0.426947    0.115669    0.571628     0.004505
PT2351   PT        0.466063    0.077221    0.573259     0.004505
AU2352   AU        0.463440    0.113727    0.534868     0.007504
PT2353   PT        0.497821    0.076655    0.535761     0.004505
PT2354   PT        0.499442    0.114496    0.573599     0.004505
PT2355   PT        0.535420    0.077540    0.572901     0.004505
PT2356   PT        0.536325    0.113664    0.533232     0.004505
AU2357   AU        0.571201    0.077022    0.534273     0.007504
PT2358   PT        0.571209    0.114661    0.574019     0.004505
PT2359   PT        0.605814    0.077958    0.571451     0.004505
PT2360   PT        0.606961    0.114856    0.533323     0.004505
PT2361   PT        0.640204    0.076769    0.532436     0.004505
PT2362   PT        0.640109    0.113885    0.571824     0.004505
PT2363   PT        0.677091    0.114991    0.534415     0.004505
PT2364   PT        0.105750    0.193269    0.532481     0.004505
PT2365   PT        0.141919    0.157214    0.535635     0.004505
PT2366   PT        0.141686    0.193355    0.573366     0.004505
AU2367   AU        0.177153    0.154183    0.573231     0.007504
PT2368   PT        0.178775    0.191041    0.534885     0.004505
AU2369   AU        0.212670    0.151314    0.534067     0.007504
AU2370   AU        0.212597    0.189523    0.574640     0.007504
PT2371   PT        0.248189    0.151802    0.574586     0.004505
PT2372   PT        0.247651    0.188225    0.533822     0.004505
AU2373   AU        0.283854    0.151955    0.533254     0.007504
PT2374   PT        0.283875    0.188095    0.574201     0.004505
PT2375   PT        0.320393    0.151990    0.572226     0.004505
AU2376   AU        0.320480    0.189609    0.536031     0.007504
AU2377   AU        0.356232    0.151152    0.534053     0.007504
AU2378   AU        0.355812    0.190172    0.573945     0.007504
AU2379   AU        0.390944    0.153786    0.573308     0.007504
AU2380   AU        0.392664    0.192163    0.534290     0.007504
AU2381   AU        0.425137    0.152602    0.535125     0.007504
AU2382   AU        0.428855    0.190910    0.571622     0.007504
AU2383   AU        0.463271    0.151736    0.570670     0.007504
PT2384   PT        0.462956    0.191193    0.533670     0.004505
PT2385   PT        0.499532    0.152628    0.535438     0.004505
PT2386   PT        0.499405    0.191406    0.572080     0.004505
PT2387   PT        0.536984    0.151129    0.572566     0.004505
PT2388   PT        0.536748    0.191348    0.532626     0.004505
AU2389   AU        0.571663    0.154094    0.534763     0.007504
AU2390   AU        0.572426    0.189769    0.572353     0.007504
PT2391   PT        0.607779    0.150450    0.573305     0.004505
PT2392   PT        0.608988    0.190268    0.533961     0.004505
AU2393   AU        0.643179    0.152331    0.534746     0.007504
AU2394   AU        0.643484    0.191768    0.572299     0.007504
AU2395   AU        0.676882    0.151777    0.572094     0.007504
AU2396   AU        0.677914    0.190299    0.534313     0.007504
PT2397   PT        0.712611    0.152824    0.531674     0.004505
AU2398   AU        0.711893    0.190465    0.573303     0.007504
AU2399   AU        0.748318    0.192695    0.533062     0.007504
PT2400   PT        0.037181    0.270714    0.533681     0.004505
PT2401   PT        0.072235    0.232456    0.531803     0.004505
PT2402   PT        0.070606    0.270152    0.571710     0.004505
PT2403   PT        0.106162    0.231541    0.571118     0.004505
AU2404   AU        0.104884    0.269100    0.535392     0.007504
PT2405   PT        0.141110    0.230288    0.531161     0.004505
AU2406   AU        0.141309    0.268904    0.575779     0.007504
AU2407   AU        0.178626    0.229261    0.573711     0.007504
AU2408   AU        0.176053    0.265457    0.534799     0.007504
AU2409   AU        0.213793    0.229393    0.534409     0.007504
AU2410   AU        0.213723    0.269118    0.571102     0.007504
AU2411   AU        0.247901    0.228203    0.572706     0.007504
PT2412   PT        0.248402    0.268700    0.535462     0.004505
PT2413   PT        0.286164    0.229677    0.534987     0.004505
AU2414   AU        0.282919    0.266375    0.573690     0.007504
AU2415   AU        0.320206    0.227832    0.572662     0.007504
PT2416   PT        0.320096    0.267117    0.537463     0.004505
PT2417   PT        0.356950    0.229249    0.533964     0.004505
AU2418   AU        0.356985    0.269403    0.570929     0.007504
AU2419   AU        0.391242    0.231434    0.571434     0.007504
AU2420   AU        0.393170    0.268341    0.534274     0.007504
AU2421   AU        0.426561    0.229757    0.535220     0.007504
AU2422   AU        0.426245    0.269628    0.574361     0.007504
AU2423   AU        0.464197    0.229790    0.571268     0.007504
AU2424   AU        0.463132    0.270078    0.534398     0.007504
AU2425   AU        0.498859    0.229454    0.533627     0.007504
PT2426   PT        0.495926    0.266954    0.571635     0.004505
AU2427   AU        0.535734    0.228227    0.571504     0.007504
AU2428   AU        0.535779    0.268950    0.532117     0.007504
PT2429   PT        0.573022    0.229512    0.534113     0.004505
AU2430   AU        0.569169    0.269704    0.574179     0.007504
PT2431   PT        0.606633    0.227635    0.576163     0.004505
AU2432   AU        0.608632    0.267620    0.531376     0.007504
PT2433   PT        0.643083    0.229649    0.535464     0.004505
PT2434   PT        0.642878    0.268669    0.571218     0.004505
PT2435   PT        0.678658    0.227845    0.570901     0.004505
AU2436   AU        0.678282    0.267430    0.534340     0.007504
AU2437   AU        0.715067    0.229147    0.534462     0.007504
AU2438   AU        0.713103    0.266156    0.574423     0.007504
PT2439   PT        0.748751    0.230402    0.573169     0.004505
PT2440   PT        0.748957    0.266682    0.531423     0.004505
PT2441   PT        0.782844    0.229272    0.534132     0.004505
PT2442   PT        0.783447    0.267410    0.573123     0.004505
AU2443   AU        0.816429    0.268154    0.534411     0.007504
PT2444   PT        0.037340    0.308025    0.572906     0.004505
PT2445   PT        0.036980    0.345312    0.535027     0.004505
PT2446   PT        0.071392    0.308204    0.535502     0.004505
AU2447   AU        0.069583    0.346868    0.573880     0.007504
AU2448   AU        0.105215    0.306759    0.575080     0.007504
AU2449   AU        0.105390    0.348443    0.535579     0.007504
AU2450   AU        0.141715    0.305773    0.533741     0.007504
PT2451   PT        0.138357    0.345242    0.573631     0.004505
AU2452   AU        0.175791    0.306931    0.573331     0.007504
PT2453   PT        0.173835    0.346283    0.536626     0.004505
AU2454   AU        0.210327    0.309013    0.531123     0.007504
AU2455   AU        0.211741    0.346188    0.571852     0.007504
PT2456   PT        0.249974    0.308463    0.574523     0.004505
AU2457   AU        0.248692    0.344315    0.535211     0.007504
AU2458   AU        0.284867    0.304518    0.536258     0.007504
AU2459   AU        0.285205    0.346194    0.573816     0.007504
AU2460   AU        0.321289    0.306850    0.572257     0.007504
AU2461   AU        0.317221    0.347893    0.536388     0.007504
AU2462   AU        0.357466    0.305324    0.534678     0.007504
AU2463   AU        0.353743    0.348294    0.573442     0.007504
AU2464   AU        0.391684    0.309170    0.573285     0.007504
AU2465   AU        0.392081    0.344953    0.534627     0.007504
PT2466   PT        0.428641    0.307600    0.533901     0.004505
AU2467   AU        0.426748    0.345392    0.571965     0.007504
AU2468   AU        0.463606    0.307534    0.573015     0.007504
AU2469   AU        0.461267    0.344078    0.533796     0.007504
AU2470   AU        0.498609    0.307162    0.535873     0.007504
PT2471   PT        0.497827    0.346423    0.572713     0.004505
AU2472   AU        0.537673    0.307558    0.571824     0.007504
PT2473   PT        0.533730    0.347653    0.533046     0.004505
AU2474   AU        0.571290    0.304433    0.532045     0.007504
AU2475   AU        0.570020    0.347210    0.572226     0.007504
PT2476   PT        0.605008    0.306376    0.572469     0.004505
AU2477   AU        0.608773    0.345867    0.532728     0.007504
PT2478   PT        0.642220    0.304492    0.533712     0.004505
PT2479   PT        0.644238    0.344656    0.572407     0.004505
PT2480   PT        0.678598    0.305710    0.573013     0.004505
AU2481   AU        0.678092    0.341181    0.534120     0.007504
AU2482   AU        0.714301    0.305026    0.535043     0.007504
AU2483   AU        0.714166    0.344003    0.573829     0.007504
AU2484   AU        0.750154    0.305581    0.572529     0.007504
PT2485   PT        0.750692    0.343992    0.535801     0.004505
PT2486   PT        0.783649    0.305105    0.533403     0.004505
PT2487   PT        0.784660    0.344570    0.574220     0.004505
PT2488   PT        0.817654    0.306484    0.573831     0.004505
PT2489   PT        0.818720    0.343795    0.537122     0.004505
PT2490   PT        0.036125    0.385071    0.573384     0.004505
AU2491   AU        0.036882    0.423151    0.533213     0.007504
PT2492   PT        0.070960    0.384356    0.534160     0.004505
PT2493   PT        0.069447    0.424282    0.571222     0.004505
PT2494   PT        0.105095    0.385008    0.573510     0.004505
PT2495   PT        0.104327    0.422280    0.533601     0.004505
AU2496   AU        0.138952    0.385050    0.533997     0.007504
PT2497   PT        0.139758    0.424243    0.571738     0.004505
AU2498   AU        0.174731    0.383921    0.570908     0.007504
PT2499   PT        0.175508    0.420949    0.534144     0.004505
PT2500   PT        0.212048    0.382273    0.531901     0.004505
AU2501   AU        0.213979    0.423734    0.576048     0.007504
PT2502   PT        0.247433    0.384155    0.572023     0.004505
AU2503   AU        0.245734    0.422078    0.534024     0.007504
AU2504   AU        0.282374    0.385604    0.536649     0.007504
PT2505   PT        0.285337    0.423564    0.573863     0.004505
AU2506   AU        0.321120    0.387652    0.573353     0.007504
AU2507   AU        0.320471    0.425800    0.533643     0.007504
AU2508   AU        0.357348    0.384003    0.534386     0.007504
AU2509   AU        0.357846    0.424375    0.572396     0.007504
AU2510   AU        0.389535    0.385076    0.573760     0.007504
AU2511   AU        0.391034    0.422450    0.533303     0.007504
PT2512   PT        0.427368    0.382959    0.535867     0.004505
PT2513   PT        0.427102    0.422980    0.571265     0.004505
AU2514   AU        0.462580    0.383066    0.571713     0.007504
AU2515   AU        0.463257    0.421662    0.533452     0.007504
AU2516   AU        0.497569    0.384289    0.532818     0.007504
AU2517   AU        0.498774    0.422370    0.571278     0.007504
AU2518   AU        0.532992    0.383476    0.572224     0.007504
AU2519   AU        0.534712    0.421349    0.533845     0.007504
AU2520   AU        0.570862    0.385599    0.533771     0.007504
AU2521   AU        0.573128    0.422721    0.574594     0.007504
AU2522   AU        0.607314    0.382686    0.568707     0.007504
AU2523   AU        0.605164    0.425350    0.534657     0.007504
AU2524   AU        0.645302    0.382737    0.531363     0.007504
AU2525   AU        0.642548    0.422615    0.571715     0.007504
PT2526   PT        0.677308    0.379921    0.574536     0.004505
PT2527   PT        0.679074    0.420147    0.535746     0.004505
AU2528   AU        0.712278    0.381431    0.534041     0.007504
PT2529   PT        0.714802    0.419416    0.573284     0.004505
AU2530   AU        0.751117    0.381576    0.573445     0.007504
PT2531   PT        0.749171    0.421122    0.532865     0.004505
AU2532   AU        0.785317    0.380785    0.534355     0.007504
PT2533   PT        0.784788    0.420112    0.574117     0.004505
PT2534   PT        0.818752    0.382587    0.575217     0.004505
PT2535   PT        0.818826    0.418612    0.534766     0.004505
AU2536   AU        0.000714    0.460341    0.533592     0.007504
PT2537   PT        0.035962    0.461303    0.572240     0.004505
PT2538   PT        0.036613    0.501859    0.532704     0.004505
PT2539   PT        0.069838    0.461759    0.533108     0.004505
AU2540   AU        0.070988    0.500579    0.572819     0.007504
PT2541   PT        0.106375    0.462846    0.570867     0.004505
AU2542   AU        0.104976    0.502888    0.536292     0.007504
PT2543   PT        0.140045    0.462451    0.533416     0.004505
PT2544   PT        0.139775    0.500012    0.573477     0.004505
AU2545   AU        0.175665    0.461415    0.571523     0.007504
PT2546   PT        0.174388    0.499665    0.532911     0.004505
PT2547   PT        0.214909    0.463354    0.536229     0.004505
AU2548   AU        0.213607    0.501917    0.573179     0.007504
AU2549   AU        0.251324    0.461439    0.572818     0.007504
AU2550   AU        0.250332    0.501318    0.534304     0.007504
PT2551   PT        0.286764    0.465578    0.533039     0.004505
AU2552   AU        0.287730    0.500846    0.572178     0.007504
AU2553   AU        0.321089    0.461603    0.573586     0.007504
AU2554   AU        0.322249    0.500631    0.535121     0.007504
PT2555   PT        0.355700    0.463250    0.534300     0.004505
AU2556   AU        0.355933    0.502891    0.571678     0.007504
AU2557   AU        0.391657    0.461740    0.569774     0.007504
AU2558   AU        0.392893    0.500256    0.533694     0.007504
PT2559   PT        0.429116    0.461849    0.534172     0.004505
AU2560   AU        0.428680    0.499334    0.572141     0.007504
AU2561   AU        0.462291    0.460619    0.571650     0.007504
AU2562   AU        0.464889    0.500083    0.532066     0.007504
AU2563   AU        0.499535    0.461014    0.535884     0.007504
AU2564   AU        0.497742    0.499018    0.571845     0.007504
AU2565   AU        0.534990    0.462991    0.572534     0.007504
PT2566   PT        0.532153    0.499114    0.534726     0.004505
AU2567   AU        0.569317    0.461617    0.532645     0.007504
AU2568   AU        0.569677    0.501048    0.572500     0.007504
AU2569   AU        0.606658    0.461515    0.571586     0.007504
AU2570   AU        0.605781    0.501460    0.533063     0.007504
AU2571   AU        0.642990    0.462129    0.534985     0.007504
PT2572   PT        0.641742    0.503544    0.572087     0.004505
AU2573   AU        0.677833    0.460590    0.571335     0.007504
AU2574   AU        0.677061    0.500728    0.534827     0.007504
AU2575   AU        0.714572    0.460461    0.534307     0.007504
PT2576   PT        0.712248    0.499412    0.571600     0.004505
AU2577   AU        0.748744    0.459894    0.572544     0.007504
AU2578   AU        0.750632    0.500077    0.534196     0.007504
AU2579   AU        0.782644    0.459636    0.534616     0.007504
PT2580   PT        0.782619    0.498850    0.571717     0.004505
PT2581   PT        0.815931    0.458804    0.572519     0.004505
PT2582   PT        0.816064    0.497829    0.533876     0.004505
PT2583   PT        0.848481    0.459871    0.535255     0.004505
PT2584   PT        0.038166    0.538957    0.573981     0.004505
PT2585   PT        0.036493    0.578474    0.532815     0.004505
PT2586   PT        0.070814    0.540203    0.534552     0.004505
PT2587   PT        0.072891    0.579327    0.574808     0.004505
PT2588   PT        0.104828    0.540469    0.574684     0.004505
PT2589   PT        0.103897    0.575800    0.533945     0.004505
PT2590   PT        0.139407    0.538009    0.535501     0.004505
AU2591   AU        0.139664    0.578184    0.573568     0.007504
PT2592   PT        0.176873    0.541580    0.574457     0.004505
AU2593   AU        0.174789    0.578707    0.533662     0.007504
AU2594   AU        0.211429    0.537732    0.532230     0.007504
PT2595   PT        0.212627    0.579488    0.573834     0.004505
AU2596   AU        0.249162    0.539905    0.575105     0.007504
AU2597   AU        0.247492    0.578492    0.534549     0.007504
AU2598   AU        0.285334    0.537121    0.536035     0.007504
PT2599   PT        0.283611    0.578456    0.572607     0.004505
AU2600   AU        0.321824    0.541237    0.571926     0.007504
AU2601   AU        0.319729    0.579246    0.533878     0.007504
AU2602   AU        0.356690    0.540364    0.531214     0.007504
PT2603   PT        0.357063    0.578333    0.572340     0.004505
AU2604   AU        0.392901    0.540108    0.571337     0.007504
AU2605   AU        0.391190    0.580120    0.533258     0.007504
AU2606   AU        0.428755    0.540020    0.533422     0.007504
AU2607   AU        0.426660    0.577540    0.570495     0.007504
AU2608   AU        0.463731    0.537771    0.569076     0.007504
AU2609   AU        0.464036    0.578895    0.533493     0.007504
AU2610   AU        0.499496    0.538917    0.533969     0.007504
AU2611   AU        0.496505    0.578247    0.572137     0.007504
AU2612   AU        0.535174    0.537284    0.570747     0.007504
AU2613   AU        0.533053    0.577931    0.532044     0.007504
AU2614   AU        0.570806    0.540168    0.532452     0.007504
PT2615   PT        0.570129    0.574817    0.570640     0.004505
AU2616   AU        0.605158    0.539388    0.571127     0.007504
AU2617   AU        0.606134    0.577721    0.533943     0.007504
AU2618   AU        0.640322    0.539720    0.532856     0.007504
AU2619   AU        0.641009    0.577578    0.570773     0.007504
AU2620   AU        0.677008    0.539474    0.573148     0.007504
AU2621   AU        0.678667    0.577857    0.534221     0.007504
PT2622   PT        0.714169    0.538337    0.534301     0.004505
AU2623   AU        0.713286    0.579286    0.570313     0.007504
PT2624   PT        0.748302    0.539664    0.571183     0.004505
AU2625   AU        0.748435    0.578177    0.535152     0.007504
PT2626   PT        0.783779    0.538952    0.534198     0.004505
AU2627   AU        0.782042    0.577308    0.570848     0.007504
PT2628   PT        0.816660    0.536929    0.572467     0.004505
PT2629   PT        0.818075    0.578268    0.536392     0.004505
PT2630   PT        0.037385    0.617931    0.572492     0.004505
AU2631   AU        0.038234    0.653480    0.533203     0.007504
PT2632   PT        0.072369    0.615451    0.534990     0.004505
PT2633   PT        0.072238    0.655399    0.570335     0.004505
PT2634   PT        0.106638    0.616281    0.572475     0.004505
PT2635   PT        0.106288    0.655652    0.532828     0.004505
PT2636   PT        0.138791    0.616023    0.533692     0.004505
AU2637   AU        0.140566    0.655664    0.573204     0.007504
PT2638   PT        0.176235    0.618014    0.573177     0.004505
AU2639   AU        0.175998    0.659034    0.534607     0.007504
PT2640   PT        0.212786    0.619238    0.534482     0.004505
PT2641   PT        0.212039    0.656649    0.573505     0.004505
AU2642   AU        0.246495    0.616218    0.572760     0.007504
AU2643   AU        0.247872    0.655882    0.534645     0.007504
AU2644   AU        0.285392    0.616855    0.531686     0.007504
AU2645   AU        0.282779    0.657204    0.572088     0.007504
AU2646   AU        0.318916    0.619511    0.571133     0.007504
AU2647   AU        0.319111    0.655833    0.532854     0.007504
AU2648   AU        0.356427    0.617406    0.533150     0.007504
AU2649   AU        0.354283    0.655910    0.571172     0.007504
AU2650   AU        0.393240    0.615652    0.572313     0.007504
AU2651   AU        0.390658    0.654170    0.534283     0.007504
AU2652   AU        0.426455    0.615806    0.532235     0.007504
PT2653   PT        0.427207    0.655673    0.571943     0.004505
AU2654   AU        0.462307    0.615080    0.572248     0.007504
AU2655   AU        0.462416    0.656747    0.534510     0.007504
PT2656   PT        0.498341    0.618406    0.533109     0.004505
AU2657   AU        0.501172    0.655565    0.571697     0.007504
PT2658   PT        0.534638    0.614589    0.573163     0.004505
AU2659   AU        0.535011    0.658676    0.534065     0.007504
AU2660   AU        0.569038    0.614815    0.533890     0.007504
AU2661   AU        0.569578    0.654117    0.570126     0.007504
AU2662   AU        0.606390    0.617942    0.570362     0.007504
PT2663   PT        0.606942    0.654036    0.530400     0.004505
AU2664   AU        0.642529    0.617385    0.535060     0.007504
AU2665   AU        0.642988    0.656313    0.575798     0.007504
AU2666   AU        0.679067    0.616893    0.571570     0.007504
AU2667   AU        0.679718    0.656377    0.531428     0.007504
PT2668   PT        0.714665    0.618721    0.535418     0.004505
AU2669   AU        0.712767    0.655231    0.572844     0.007504
PT2670   PT        0.749534    0.616761    0.570739     0.004505
AU2671   AU        0.749121    0.654717    0.533067     0.007504
PT2672   PT        0.782320    0.614155    0.534323     0.004505
PT2673   PT        0.782047    0.655893    0.571223     0.004505
PT2674   PT        0.815554    0.615900    0.573175     0.004505
PT2675   PT        0.817138    0.651570    0.533732     0.004505
PT2676   PT        0.071970    0.692471    0.533237     0.004505
AU2677   AU        0.107240    0.694656    0.571538     0.007504
AU2678   AU        0.107016    0.730818    0.532948     0.007504
PT2679   PT        0.140337    0.695241    0.533458     0.004505
AU2680   AU        0.142515    0.732648    0.572266     0.007504
PT2681   PT        0.176407    0.694308    0.571930     0.004505
PT2682   PT        0.177188    0.732563    0.531960     0.004505
PT2683   PT        0.212237    0.694843    0.533831     0.004505
PT2684   PT        0.210122    0.732410    0.570229     0.004505
AU2685   AU        0.248316    0.694592    0.573545     0.007504
PT2686   PT        0.248608    0.733868    0.533159     0.004505
AU2687   AU        0.284759    0.695914    0.534227     0.007504
AU2688   AU        0.284470    0.732009    0.571917     0.007504
AU2689   AU        0.319466    0.694806    0.571869     0.007504
AU2690   AU        0.317717    0.732080    0.535308     0.007504
AU2691   AU        0.355248    0.694153    0.533219     0.007504
AU2692   AU        0.355590    0.733719    0.574344     0.007504
AU2693   AU        0.390597    0.694255    0.570015     0.007504
AU2694   AU        0.389300    0.732922    0.534078     0.007504
PT2695   PT        0.429191    0.694533    0.531646     0.004505
AU2696   AU        0.431005    0.733585    0.573785     0.007504
AU2697   AU        0.463116    0.695490    0.569821     0.007504
AU2698   AU        0.465234    0.733530    0.531523     0.007504
AU2699   AU        0.500424    0.694745    0.533024     0.007504
AU2700   AU        0.499304    0.731542    0.572560     0.007504
PT2701   PT        0.535270    0.695551    0.572684     0.004505
PT2702   PT        0.534314    0.733616    0.532402     0.004505
PT2703   PT        0.571476    0.694839    0.534731     0.004505
PT2704   PT        0.571815    0.733242    0.573445     0.004505
AU2705   AU        0.605741    0.692515    0.570053     0.007504
PT2706   PT        0.608056    0.731998    0.535094     0.004505
AU2707   AU        0.645419    0.692361    0.534749     0.007504
AU2708   AU        0.640916    0.731698    0.571937     0.007504
AU2709   AU        0.679502    0.694161    0.572893     0.007504
PT2710   PT        0.678436    0.731673    0.532459     0.004505
PT2711   PT        0.712410    0.693479    0.532313     0.004505
PT2712   PT        0.712196    0.732026    0.571325     0.004505
PT2713   PT        0.746984    0.695053    0.570843     0.004505
AU2714   AU        0.748799    0.730603    0.530542     0.007504
PT2715   PT        0.783269    0.691425    0.533641     0.004505
AU2716   AU        0.143094    0.770612    0.532336     0.007504
AU2717   AU        0.176011    0.770664    0.570816     0.007504
PT2718   PT        0.178892    0.809763    0.531561     0.004505
PT2719   PT        0.212443    0.771581    0.531040     0.004505
PT2720   PT        0.212709    0.807971    0.570606     0.004505
AU2721   AU        0.249764    0.771894    0.573347     0.007504
PT2722   PT        0.247378    0.808170    0.532055     0.004505
PT2723   PT        0.284020    0.770940    0.535170     0.004505
AU2724   AU        0.284660    0.809032    0.572901     0.007504
PT2725   PT        0.321318    0.770306    0.572788     0.004505
AU2726   AU        0.319699    0.809042    0.534192     0.007504
PT2727   PT        0.355504    0.771367    0.536090     0.004505
PT2728   PT        0.355252    0.810432    0.571608     0.004505
PT2729   PT        0.390079    0.769645    0.573050     0.004505
AU2730   AU        0.391850    0.809050    0.531963     0.007504
AU2731   AU        0.427835    0.772296    0.533546     0.007504
AU2732   AU        0.426010    0.808493    0.574092     0.007504
AU2733   AU        0.465088    0.771916    0.571561     0.007504
AU2734   AU        0.462055    0.809253    0.533715     0.007504
AU2735   AU        0.500586    0.772827    0.533503     0.007504
AU2736   AU        0.500933    0.810535    0.572753     0.007504
PT2737   PT        0.535356    0.770901    0.571703     0.004505
AU2738   AU        0.537036    0.809772    0.533858     0.007504
AU2739   AU        0.571097    0.771891    0.534165     0.007504
AU2740   AU        0.571216    0.808530    0.570303     0.007504
AU2741   AU        0.607275    0.772044    0.572967     0.007504
PT2742   PT        0.605762    0.807964    0.534123     0.004505
AU2743   AU        0.642445    0.769685    0.533995     0.007504
PT2744   PT        0.642206    0.809084    0.573055     0.004505
PT2745   PT        0.677131    0.768674    0.570424     0.004505
AU2746   AU        0.675088    0.809398    0.530497     0.007504
PT2747   PT        0.712518    0.767393    0.532563     0.004505
AU2748   AU        0.214311    0.845302    0.532163     0.007504
PT2749   PT        0.249477    0.845847    0.570402     0.004505
PT2750   PT        0.248851    0.883066    0.533272     0.004505
AU2751   AU        0.282611    0.845223    0.534017     0.007504
PT2752   PT        0.284552    0.883327    0.568706     0.004505
PT2753   PT        0.319280    0.847058    0.574079     0.004505
AU2754   AU        0.319310    0.881685    0.531839     0.007504
PT2755   PT        0.356474    0.848502    0.534232     0.004505
PT2756   PT        0.354705    0.882359    0.573736     0.004505
PT2757   PT        0.392664    0.846317    0.573514     0.004505
PT2758   PT        0.392842    0.884206    0.533256     0.004505
PT2759   PT        0.428139    0.846538    0.534947     0.004505
PT2760   PT        0.427500    0.882332    0.571866     0.004505
AU2761   AU        0.462765    0.846414    0.571759     0.007504
AU2762   AU        0.462011    0.883583    0.532130     0.007504
AU2763   AU        0.498072    0.846648    0.532718     0.007504
PT2764   PT        0.498777    0.881972    0.571565     0.004505
AU2765   AU        0.535551    0.846300    0.572358     0.007504
PT2766   PT        0.535999    0.881848    0.533305     0.004505
PT2767   PT        0.573318    0.845661    0.533666     0.004505
AU2768   AU        0.570926    0.881200    0.571347     0.007504
PT2769   PT        0.605504    0.844572    0.571006     0.004505
PT2770   PT        0.604114    0.883745    0.534583     0.004505
PT2771   PT        0.639749    0.846879    0.529980     0.004505
PT2772   PT        0.426767    0.920121    0.532946     0.004505
PT2773   PT        0.321012    0.041771    0.610376     0.004505
PT2774   PT        0.353262    0.039705    0.649848     0.004505
PT2775   PT        0.390032    0.041624    0.613672     0.004505
AU2776   AU        0.427049    0.042737    0.649737     0.007504
PT2777   PT        0.462231    0.039814    0.612923     0.004505
PT2778   PT        0.499720    0.040817    0.648260     0.004505
AU2779   AU        0.534504    0.043502    0.612848     0.007504
PT2780   PT        0.179017    0.116512    0.611990     0.004505
PT2781   PT        0.211830    0.117479    0.650470     0.004505
PT2782   PT        0.250210    0.077579    0.650090     0.004505
AU2783   AU        0.248853    0.115979    0.613619     0.007504
PT2784   PT        0.284547    0.077041    0.609707     0.004505
PT2785   PT        0.283890    0.115831    0.649461     0.004505
PT2786   PT        0.319478    0.077592    0.646920     0.004505
AU2787   AU        0.319725    0.114842    0.611498     0.007504
PT2788   PT        0.355276    0.078014    0.610869     0.004505
PT2789   PT        0.356021    0.115269    0.651257     0.004505
PT2790   PT        0.389118    0.078778    0.649094     0.004505
PT2791   PT        0.389633    0.116916    0.611138     0.004505
AU2792   AU        0.428101    0.078216    0.611487     0.007504
PT2793   PT        0.427750    0.115565    0.650202     0.004505
PT2794   PT        0.463815    0.077866    0.650873     0.004505
AU2795   AU        0.463583    0.114848    0.610927     0.007504
AU2796   AU        0.498910    0.078568    0.614044     0.007504
PT2797   PT        0.498712    0.116345    0.650725     0.004505
PT2798   PT        0.535087    0.079139    0.649958     0.004505
PT2799   PT        0.533641    0.114253    0.612517     0.004505
PT2800   PT        0.568981    0.079099    0.611989     0.004505
PT2801   PT        0.570566    0.115629    0.649877     0.004505
PT2802   PT        0.605858    0.076055    0.647364     0.004505
PT2803   PT        0.605982    0.117026    0.611983     0.004505
AU2804   AU        0.641360    0.075049    0.609497     0.007504
PT2805   PT        0.677327    0.114329    0.611089     0.004505
PT2806   PT        0.109003    0.192003    0.611397     0.004505
AU2807   AU        0.142881    0.155832    0.612375     0.007504
AU2808   AU        0.141888    0.194524    0.650340     0.007504
AU2809   AU        0.177665    0.155910    0.649304     0.007504
PT2810   PT        0.176493    0.191579    0.612956     0.004505
PT2811   PT        0.213736    0.153753    0.613233     0.004505
AU2812   AU        0.213140    0.191651    0.649439     0.007504
PT2813   PT        0.249845    0.154452    0.649518     0.004505
AU2814   AU        0.249459    0.189330    0.611881     0.007504
AU2815   AU        0.284857    0.153351    0.611953     0.007504
AU2816   AU        0.286000    0.190099    0.649247     0.007504
AU2817   AU        0.319995    0.153397    0.650195     0.007504
AU2818   AU        0.318195    0.189588    0.611279     0.007504
AU2819   AU        0.351953    0.151176    0.611070     0.007504
AU2820   AU        0.354988    0.192008    0.650106     0.007504
AU2821   AU        0.390344    0.154745    0.651011     0.007504
AU2822   AU        0.392140    0.191739    0.611707     0.007504
AU2823   AU        0.427502    0.151696    0.610404     0.007504
AU2824   AU        0.426016    0.189649    0.650782     0.007504
AU2825   AU        0.464734    0.151917    0.650266     0.007504
AU2826   AU        0.463053    0.190305    0.609215     0.007504
PT2827   PT        0.498354    0.151112    0.612476     0.004505
AU2828   AU        0.498581    0.192020    0.648922     0.007504
PT2829   PT        0.535111    0.151930    0.648153     0.004505
PT2830   PT        0.536712    0.191019    0.609914     0.004505
AU2831   AU        0.570539    0.152706    0.611036     0.007504
AU2832   AU        0.569894    0.190255    0.648847     0.007504
AU2833   AU        0.606393    0.155277    0.649364     0.007504
PT2834   PT        0.608531    0.189319    0.609964     0.004505
AU2835   AU        0.643866    0.153585    0.610149     0.007504
AU2836   AU        0.642176    0.191247    0.648460     0.007504
PT2837   PT        0.678053    0.155254    0.650842     0.004505
PT2838   PT        0.677614    0.192513    0.612597     0.004505
PT2839   PT        0.712134    0.154380    0.612259     0.004505
PT2840   PT        0.711495    0.191672    0.650498     0.004505
AU2841   AU        0.746002    0.193348    0.612887     0.007504
PT2842   PT        0.072159    0.268980    0.650597     0.004505
PT2843   PT        0.106891    0.232522    0.649249     0.004505
AU2844   AU        0.106397    0.272183    0.611384     0.007504
PT2845   PT        0.142766    0.232355    0.613382     0.004505
AU2846   AU        0.141601    0.270805    0.650018     0.007504
PT2847   PT        0.177665    0.231893    0.650478     0.004505
PT2848   PT        0.176078    0.270767    0.614717     0.004505
AU2849   AU        0.212083    0.229366    0.612759     0.007504
PT2850   PT        0.213217    0.269595    0.651123     0.004505
PT2851   PT        0.248915    0.229217    0.648635     0.004505
AU2852   AU        0.247506    0.269793    0.612223     0.007504
AU2853   AU        0.284989    0.227882    0.608767     0.007504
AU2854   AU        0.285519    0.266662    0.649539     0.007504
PT2855   PT        0.319906    0.229026    0.652168     0.004505
AU2856   AU        0.319417    0.269364    0.610823     0.007504
PT2857   PT        0.356979    0.229279    0.610733     0.004505
AU2858   AU        0.353956    0.269112    0.650662     0.007504
AU2859   AU        0.391960    0.230226    0.648710     0.007504
AU2860   AU        0.390487    0.269334    0.610997     0.007504
AU2861   AU        0.429978    0.229819    0.609090     0.007504
AU2862   AU        0.426493    0.268324    0.648503     0.007504
PT2863   PT        0.461221    0.229995    0.650814     0.004505
AU2864   AU        0.463089    0.268608    0.611664     0.007504
AU2865   AU        0.499017    0.231181    0.611728     0.007504
AU2866   AU        0.498856    0.268560    0.650031     0.007504
AU2867   AU        0.536157    0.230636    0.649290     0.007504
PT2868   PT        0.534987    0.269516    0.611696     0.004505
PT2869   PT        0.571383    0.228682    0.612520     0.004505
AU2870   AU        0.570569    0.270653    0.649754     0.007504
AU2871   AU        0.605273    0.227460    0.649236     0.007504
AU2872   AU        0.607061    0.263744    0.611179     0.007504
PT2873   PT        0.645074    0.229084    0.609610     0.004505
AU2874   AU        0.641508    0.266852    0.649976     0.007504
AU2875   AU        0.678816    0.229752    0.649891     0.007504
PT2876   PT        0.678873    0.266631    0.612687     0.004505
AU2877   AU        0.713394    0.230307    0.610402     0.007504
AU2878   AU        0.713525    0.267956    0.650077     0.007504
PT2879   PT        0.747327    0.229251    0.648653     0.004505
PT2880   PT        0.747864    0.268726    0.610555     0.004505
PT2881   PT        0.781243    0.268483    0.649590     0.004505
AU2882   AU        0.036697    0.346229    0.610555     0.007504
PT2883   PT        0.071400    0.308589    0.612610     0.004505
PT2884   PT        0.071284    0.347480    0.649113     0.004505
PT2885   PT        0.105707    0.308449    0.650114     0.004505
AU2886   AU        0.103495    0.346039    0.608893     0.007504
AU2887   AU        0.141245    0.308936    0.611148     0.007504
PT2888   PT        0.139281    0.346930    0.648259     0.004505
AU2889   AU        0.177478    0.306657    0.651004     0.007504
AU2890   AU        0.175820    0.345109    0.609460     0.007504
AU2891   AU        0.212226    0.305966    0.611756     0.007504
AU2892   AU        0.212676    0.342656    0.648738     0.007504
AU2893   AU        0.248655    0.305379    0.651265     0.007504
AU2894   AU        0.247973    0.344395    0.613931     0.007504
AU2895   AU        0.285250    0.307426    0.611552     0.007504
AU2896   AU        0.283233    0.344619    0.650091     0.007504
AU2897   AU        0.319249    0.308203    0.649789     0.007504
PT2898   PT        0.321578    0.345755    0.611516     0.004505
AU2899   AU        0.356901    0.308419    0.610996     0.007504
AU2900   AU        0.356858    0.344896    0.651155     0.007504
AU2901   AU        0.392501    0.306041    0.650907     0.007504
AU2902   AU        0.391630    0.346271    0.612634     0.007504
AU2903   AU        0.427549    0.308621    0.610850     0.007504
AU2904   AU        0.427083    0.347189    0.647400     0.007504
AU2905   AU        0.464432    0.306885    0.648589     0.007504
AU2906   AU        0.464617    0.346194    0.610510     0.007504
AU2907   AU        0.498857    0.306165    0.608187     0.007504
AU2908   AU        0.499507    0.347170    0.649463     0.007504
AU2909   AU        0.535127    0.309160    0.649448     0.007504
AU2910   AU        0.534403    0.346986    0.612172     0.007504
AU2911   AU        0.569958    0.309419    0.609667     0.007504
AU2912   AU        0.571329    0.344679    0.650143     0.007504
AU2913   AU        0.606897    0.305635    0.648633     0.007504
AU2914   AU        0.606631    0.345752    0.610296     0.007504
PT2915   PT        0.643602    0.307391    0.612060     0.004505
PT2916   PT        0.643414    0.343760    0.650005     0.004505
AU2917   AU        0.678376    0.307013    0.651504     0.007504
AU2918   AU        0.678866    0.344096    0.612626     0.007504
AU2919   AU        0.712556    0.305218    0.611764     0.007504
PT2920   PT        0.714494    0.345333    0.650944     0.004505
PT2921   PT        0.747953    0.306322    0.649517     0.004505
PT2922   PT        0.750084    0.346175    0.610746     0.004505
AU2923   AU        0.782649    0.306000    0.611650     0.007504
PT2924   PT        0.782420    0.347788    0.649884     0.004505
PT2925   PT        0.817722    0.343867    0.611828     0.004505
AU2926   AU        0.037100    0.384545    0.649518     0.007504
AU2927   AU        0.036480    0.424958    0.612368     0.007504
PT2928   PT        0.069683    0.385222    0.611224     0.004505
AU2929   AU        0.071799    0.423225    0.649995     0.007504
PT2930   PT        0.107231    0.385777    0.647569     0.004505
PT2931   PT        0.106557    0.424066    0.610129     0.004505
PT2932   PT        0.140510    0.383553    0.609966     0.004505
AU2933   AU        0.140117    0.422688    0.649198     0.007504
AU2934   AU        0.175833    0.384028    0.646844     0.007504
PT2935   PT        0.174869    0.423712    0.611098     0.004505
AU2936   AU        0.212458    0.382361    0.611717     0.007504
AU2937   AU        0.212578    0.423594    0.651401     0.007504
PT2938   PT        0.247923    0.387125    0.650058     0.004505
AU2939   AU        0.248838    0.423954    0.611778     0.007504
AU2940   AU        0.284849    0.384556    0.612157     0.007504
AU2941   AU        0.285153    0.424173    0.650688     0.007504
AU2942   AU        0.321118    0.383842    0.651064     0.007504
AU2943   AU        0.321203    0.422512    0.612207     0.007504
PT2944   PT        0.356783    0.384324    0.611271     0.004505
AU2945   AU        0.354937    0.422053    0.648998     0.007504
PT2946   PT        0.391784    0.384516    0.648919     0.004505
AU2947   AU        0.391303    0.422298    0.611781     0.007504
AU2948   AU        0.427205    0.384889    0.609945     0.007504
AU2949   AU        0.427329    0.423047    0.650272     0.007504
AU2950   AU        0.462395    0.385466    0.647811     0.007504
PT2951   PT        0.462160    0.423885    0.609715     0.004505
PT2952   PT        0.498081    0.385096    0.611776     0.004505
AU2953   AU        0.498192    0.423732    0.647115     0.007504
AU2954   AU        0.536144    0.384418    0.650506     0.007504
AU2955   AU        0.536001    0.424594    0.610764     0.007504
PT2956   PT        0.569440    0.385211    0.609914     0.004505
PT2957   PT        0.572352    0.423791    0.648207     0.004505
AU2958   AU        0.604667    0.385367    0.648102     0.007504
AU2959   AU        0.606336    0.423792    0.612307     0.007504
AU2960   AU        0.642921    0.384216    0.612263     0.007504
AU2961   AU        0.642763    0.423176    0.649783     0.007504
AU2962   AU        0.679249    0.383985    0.650991     0.007504
PT2963   PT        0.678753    0.421289    0.609137     0.004505
AU2964   AU        0.713427    0.383541    0.612138     0.007504
PT2965   PT        0.712013    0.421159    0.651125     0.004505
PT2966   PT        0.747805    0.384604    0.646219     0.004505
AU2967   AU        0.748226    0.421327    0.611479     0.007504
AU2968   AU        0.783689    0.383029    0.611472     0.007504
PT2969   PT        0.782013    0.421670    0.649297     0.004505
PT2970   PT        0.817035    0.382510    0.648385     0.004505
PT2971   PT        0.816269    0.422082    0.612346     0.004505
PT2972   PT        0.038990    0.461799    0.651368     0.004505
PT2973   PT        0.037615    0.500517    0.613273     0.004505
PT2974   PT        0.070950    0.460782    0.611466     0.004505
AU2975   AU        0.071776    0.501987    0.648615     0.007504
PT2976   PT        0.106493    0.462701    0.651778     0.004505
PT2977   PT        0.106376    0.499610    0.612021     0.004505
AU2978   AU        0.142201    0.462158    0.611291     0.007504
AU2979   AU        0.142648    0.498822    0.651329     0.007504
AU2980   AU        0.177232    0.462133    0.650854     0.007504
PT2981   PT        0.177168    0.502163    0.613160     0.004505
AU2982   AU        0.210805    0.463230    0.611085     0.007504
AU2983   AU        0.212298    0.500509    0.650240     0.007504
PT2984   PT        0.247237    0.461791    0.647898     0.004505
AU2985   AU        0.247166    0.500750    0.612447     0.007504
AU2986   AU        0.285081    0.461627    0.610799     0.007504
AU2987   AU        0.284090    0.499790    0.650252     0.007504
PT2988   PT        0.320330    0.462772    0.650445     0.004505
PT2989   PT        0.321145    0.501341    0.610687     0.004505
AU2990   AU        0.355217    0.460946    0.612405     0.007504
AU2991   AU        0.357210    0.502107    0.651041     0.007504
AU2992   AU        0.391702    0.462356    0.648484     0.007504
AU2993   AU        0.390049    0.502526    0.610898     0.007504
AU2994   AU        0.425187    0.461606    0.610079     0.007504
PT2995   PT        0.426506    0.501852    0.647677     0.004505
AU2996   AU        0.462929    0.462427    0.646871     0.007504
AU2997   AU        0.461674    0.500024    0.610769     0.007504
AU2998   AU        0.499724    0.460220    0.609521     0.007504
PT2999   PT        0.499534    0.500302    0.647666     0.004505
PT3000   PT        0.535265    0.464244    0.650285     0.004505
AU3001   AU        0.534451    0.499020    0.609663     0.007504
AU3002   AU        0.570426    0.462049    0.610867     0.007504
AU3003   AU        0.570903    0.501787    0.648054     0.007504
AU3004   AU        0.606348    0.463368    0.649572     0.007504
AU3005   AU        0.605961    0.501171    0.610836     0.007504
AU3006   AU        0.642042    0.462815    0.610761     0.007504
AU3007   AU        0.643314    0.500057    0.648222     0.007504
AU3008   AU        0.677684    0.461732    0.647688     0.007504
AU3009   AU        0.677100    0.499814    0.610014     0.007504
PT3010   PT        0.712694    0.461182    0.611850     0.004505
AU3011   AU        0.712443    0.500826    0.650823     0.007504
PT3012   PT        0.747883    0.460969    0.647993     0.004505
PT3013   PT        0.745379    0.501217    0.610136     0.004505
PT3014   PT        0.781806    0.461760    0.610149     0.004505
PT3015   PT        0.780826    0.498996    0.646678     0.004505
PT3016   PT        0.812884    0.461173    0.647253     0.004505
PT3017   PT        0.814907    0.498313    0.610187     0.004505
PT3018   PT        0.037415    0.539131    0.648257     0.004505
PT3019   PT        0.036697    0.578342    0.609772     0.004505
AU3020   AU        0.072057    0.540015    0.611915     0.007504
PT3021   PT        0.071404    0.576373    0.649699     0.004505
AU3022   AU        0.107114    0.539779    0.649502     0.007504
AU3023   AU        0.105622    0.579804    0.611639     0.007504
PT3024   PT        0.140877    0.538549    0.610855     0.004505
PT3025   PT        0.140836    0.576998    0.649759     0.004505
AU3026   AU        0.175349    0.540514    0.651331     0.007504
AU3027   AU        0.176630    0.577976    0.613404     0.007504
PT3028   PT        0.214777    0.541082    0.612577     0.004505
AU3029   AU        0.212003    0.580237    0.648695     0.007504
AU3030   AU        0.249412    0.540527    0.651398     0.007504
PT3031   PT        0.249649    0.577875    0.611039     0.004505
AU3032   AU        0.285315    0.540053    0.610712     0.007504
AU3033   AU        0.283077    0.578366    0.649581     0.007504
AU3034   AU        0.319052    0.540153    0.650579     0.007504
PT3035   PT        0.320363    0.578396    0.610370     0.004505
AU3036   AU        0.356330    0.538901    0.610933     0.007504
PT3037   PT        0.355501    0.575646    0.651610     0.004505
PT3038   PT        0.391779    0.540647    0.652466     0.004505
AU3039   AU        0.393805    0.576395    0.612733     0.007504
AU3040   AU        0.426474    0.537452    0.608518     0.007504
PT3041   PT        0.428827    0.579159    0.652086     0.004505
PT3042   PT        0.461232    0.538301    0.647744     0.004505
AU3043   AU        0.463349    0.576597    0.610911     0.007504
AU3044   AU        0.498629    0.536673    0.608669     0.007504
AU3045   AU        0.497979    0.576975    0.649912     0.007504
AU3046   AU        0.534959    0.536396    0.648673     0.007504
PT3047   PT        0.531020    0.577136    0.611755     0.004505
AU3048   AU        0.569805    0.538167    0.608581     0.007504
AU3049   AU        0.568582    0.575705    0.648819     0.007504
AU3050   AU        0.606181    0.537878    0.648436     0.007504
PT3051   PT        0.605060    0.577586    0.609787     0.004505
AU3052   AU        0.641850    0.537927    0.611112     0.007504
PT3053   PT        0.642922    0.574142    0.650613     0.004505
PT3054   PT        0.679316    0.538553    0.651023     0.004505
PT3055   PT        0.678567    0.577361    0.610987     0.004505
AU3056   AU        0.712978    0.540609    0.610528     0.007504
AU3057   AU        0.713291    0.576917    0.650174     0.007504
PT3058   PT        0.747231    0.539122    0.649857     0.004505
PT3059   PT        0.747909    0.579657    0.608065     0.004505
PT3060   PT        0.781340    0.538533    0.606766     0.004505
PT3061   PT        0.780623    0.576238    0.644723     0.004505
AU3062   AU        0.812603    0.538085    0.644794     0.007504
AU3063   AU        0.815042    0.577145    0.608379     0.007504
AU3064   AU        0.070170    0.618871    0.610221     0.007504
PT3065   PT        0.072442    0.655189    0.650587     0.004505
AU3066   AU        0.105594    0.616058    0.649508     0.007504
PT3067   PT        0.107610    0.655112    0.612117     0.004505
AU3068   AU        0.142833    0.617243    0.612920     0.007504
AU3069   AU        0.143037    0.656289    0.648459     0.007504
PT3070   PT        0.178191    0.616569    0.650240     0.004505
AU3071   AU        0.177463    0.657129    0.611513     0.007504
PT3072   PT        0.212528    0.618356    0.611895     0.004505
PT3073   PT        0.211727    0.657079    0.649671     0.004505
AU3074   AU        0.248868    0.618530    0.650602     0.007504
PT3075   PT        0.247421    0.655489    0.611712     0.004505
AU3076   AU        0.281462    0.616956    0.611959     0.007504
AU3077   AU        0.285370    0.657260    0.650036     0.007504
AU3078   AU        0.317435    0.618538    0.647915     0.007504
AU3079   AU        0.318867    0.657465    0.610995     0.007504
PT3080   PT        0.355904    0.619816    0.607741     0.004505
AU3081   AU        0.356060    0.656922    0.652218     0.007504
AU3082   AU        0.391957    0.616537    0.652303     0.007504
AU3083   AU        0.393790    0.655677    0.612390     0.007504
AU3084   AU        0.426445    0.618603    0.612451     0.007504
AU3085   AU        0.427157    0.658131    0.650533     0.007504
AU3086   AU        0.463995    0.616043    0.648983     0.007504
AU3087   AU        0.464498    0.655341    0.608891     0.007504
AU3088   AU        0.499970    0.616885    0.610647     0.007504
AU3089   AU        0.501251    0.655485    0.649597     0.007504
PT3090   PT        0.532274    0.615309    0.649365     0.004505
AU3091   AU        0.535611    0.657548    0.609394     0.007504
AU3092   AU        0.569223    0.613743    0.608108     0.007504
PT3093   PT        0.570382    0.659431    0.648323     0.004505
PT3094   PT        0.609317    0.613713    0.648397     0.004505
AU3095   AU        0.606759    0.656741    0.608950     0.007504
AU3096   AU        0.643900    0.616470    0.609094     0.007504
PT3097   PT        0.643479    0.655928    0.647853     0.004505
PT3098   PT        0.678517    0.616890    0.647722     0.004505
AU3099   AU        0.679065    0.655202    0.610992     0.007504
PT3100   PT        0.713849    0.616706    0.608507     0.004505
AU3101   AU        0.711318    0.653501    0.647557     0.007504
PT3102   PT        0.747624    0.614875    0.646395     0.004505
PT3103   PT        0.748355    0.653598    0.610546     0.004505
AU3104   AU        0.782017    0.615428    0.609375     0.007504
AU3105   AU        0.780707    0.651947    0.649242     0.007504
AU3106   AU        0.108928    0.694578    0.647804     0.007504
AU3107   AU        0.108976    0.733701    0.612667     0.007504
PT3108   PT        0.141666    0.693879    0.610870     0.004505
AU3109   AU        0.143361    0.732545    0.649232     0.007504
AU3110   AU        0.177469    0.692990    0.649374     0.007504
AU3111   AU        0.177994    0.732899    0.610815     0.007504
AU3112   AU        0.212438    0.694491    0.610596     0.007504
PT3113   PT        0.213965    0.732459    0.649665     0.004505
AU3114   AU        0.247620    0.693982    0.650289     0.007504
PT3115   PT        0.250186    0.733878    0.611582     0.004505
PT3116   PT        0.285096    0.696189    0.610105     0.004505
AU3117   AU        0.284093    0.733692    0.649738     0.007504
PT3118   PT        0.320518    0.693622    0.650434     0.004505
AU3119   AU        0.320270    0.734224    0.609974     0.007504
AU3120   AU        0.355716    0.695423    0.610030     0.007504
PT3121   PT        0.357495    0.733196    0.649224     0.004505
AU3122   AU        0.392232    0.696795    0.647856     0.007504
AU3123   AU        0.391706    0.733707    0.611138     0.007504
PT3124   PT        0.426570    0.694043    0.608839     0.004505
AU3125   AU        0.426258    0.732914    0.650680     0.007504
PT3126   PT        0.462275    0.695172    0.646727     0.004505
PT3127   PT        0.466034    0.732109    0.608956     0.004505
AU3128   AU        0.500545    0.692250    0.610118     0.007504
AU3129   AU        0.501435    0.734221    0.647710     0.007504
PT3130   PT        0.534910    0.694614    0.648019     0.004505
AU3131   AU        0.535636    0.733434    0.608993     0.007504
PT3132   PT        0.571162    0.692577    0.606698     0.004505
AU3133   AU        0.570829    0.732647    0.650335     0.007504
AU3134   AU        0.607648    0.693635    0.647775     0.007504
AU3135   AU        0.608566    0.733428    0.608753     0.007504
AU3136   AU        0.643878    0.694428    0.610208     0.007504
PT3137   PT        0.643046    0.731264    0.648778     0.004505
PT3138   PT        0.677597    0.694196    0.648637     0.004505
PT3139   PT        0.677586    0.732917    0.610152     0.004505
PT3140   PT        0.712699    0.694255    0.611415     0.004505
AU3141   AU        0.711740    0.730683    0.647805     0.007504
PT3142   PT        0.745806    0.690736    0.648491     0.004505
AU3143   AU        0.746599    0.731191    0.610756     0.007504
AU3144   AU        0.143541    0.770338    0.610105     0.007504
PT3145   PT        0.177744    0.771292    0.647200     0.004505
PT3146   PT        0.177956    0.806947    0.609317     0.004505
AU3147   AU        0.213593    0.771657    0.610496     0.007504
AU3148   AU        0.212971    0.807199    0.649016     0.007504
AU3149   AU        0.247252    0.770480    0.648558     0.007504
PT3150   PT        0.250205    0.806513    0.610273     0.004505
PT3151   PT        0.285531    0.771115    0.609938     0.004505
PT3152   PT        0.284886    0.806466    0.649128     0.004505
AU3153   AU        0.321038    0.768778    0.650496     0.007504
PT3154   PT        0.320409    0.808491    0.611425     0.004505
AU3155   AU        0.354496    0.771880    0.610775     0.007504
AU3156   AU        0.355098    0.807758    0.649297     0.007504
PT3157   PT        0.392386    0.770187    0.650271     0.004505
AU3158   AU        0.390278    0.807768    0.612841     0.007504
AU3159   AU        0.427922    0.769504    0.611127     0.007504
PT3160   PT        0.427376    0.807896    0.649688     0.004505
AU3161   AU        0.463789    0.770489    0.649600     0.007504
AU3162   AU        0.462607    0.808346    0.611787     0.007504
AU3163   AU        0.500987    0.771945    0.610251     0.007504
PT3164   PT        0.500744    0.808603    0.648804     0.004505
AU3165   AU        0.536006    0.771734    0.649123     0.007504
AU3166   AU        0.534737    0.809337    0.609989     0.007504
PT3167   PT        0.571850    0.770729    0.611706     0.004505
PT3168   PT        0.570511    0.808085    0.648421     0.004505
PT3169   PT        0.607857    0.770108    0.649025     0.004505
PT3170   PT        0.606290    0.808344    0.611044     0.004505
PT3171   PT        0.642498    0.770486    0.611248     0.004505
PT3172   PT        0.640511    0.807267    0.648606     0.004505
PT3173   PT        0.676848    0.770247    0.648417     0.004505
PT3174   PT        0.676370    0.807011    0.610005     0.004505
PT3175   PT        0.712354    0.768289    0.609367     0.004505
PT3176   PT        0.248201    0.842683    0.649371     0.004505
PT3177   PT        0.284161    0.845827    0.609322     0.004505
AU3178   AU        0.322556    0.844742    0.648726     0.007504
PT3179   PT        0.319954    0.882718    0.612296     0.004505
PT3180   PT        0.356730    0.846695    0.611321     0.004505
PT3181   PT        0.355058    0.881907    0.649447     0.004505
AU3182   AU        0.392374    0.845499    0.648424     0.007504
AU3183   AU        0.392538    0.883235    0.613566     0.007504
PT3184   PT        0.429106    0.847817    0.609267     0.004505
PT3185   PT        0.426068    0.882822    0.650410     0.004505
AU3186   AU        0.463957    0.842997    0.647268     0.007504
AU3187   AU        0.463680    0.883254    0.611605     0.007504
AU3188   AU        0.499119    0.846827    0.609228     0.007504
PT3189   PT        0.499410    0.880942    0.647632     0.004505
AU3190   AU        0.533368    0.846071    0.648207     0.007504
PT3191   PT        0.534410    0.882539    0.609121     0.004505
AU3192   AU        0.569635    0.845400    0.611101     0.007504
PT3193   PT        0.607050    0.846077    0.649800     0.004505
PT3194   PT        0.248824    0.117530    0.686760     0.004505
AU3195   AU        0.282935    0.117767    0.727460     0.007504
PT3196   PT        0.319690    0.116781    0.687939     0.004505
PT3197   PT        0.356113    0.078183    0.688363     0.004505
PT3198   PT        0.356077    0.118046    0.724460     0.004505
PT3199   PT        0.390791    0.078683    0.725060     0.004505
PT3200   PT        0.391628    0.115815    0.688116     0.004505
PT3201   PT        0.428166    0.079468    0.688280     0.004505
AU3202   AU        0.426083    0.115824    0.725526     0.007504
AU3203   AU        0.461236    0.078737    0.727645     0.007504
AU3204   AU        0.464060    0.114785    0.689136     0.007504
PT3205   PT        0.498789    0.078598    0.687191     0.004505
PT3206   PT        0.496387    0.115593    0.726412     0.004505
AU3207   AU        0.532644    0.117325    0.689410     0.007504
PT3208   PT        0.569020    0.118849    0.725220     0.004505
AU3209   AU        0.604869    0.117062    0.686905     0.007504
PT3210   PT        0.179683    0.193385    0.687682     0.004505
PT3211   PT        0.214517    0.155370    0.687708     0.004505
AU3212   AU        0.213852    0.192290    0.724919     0.007504
AU3213   AU        0.248730    0.155090    0.724552     0.007504
PT3214   PT        0.249499    0.192792    0.686504     0.004505
PT3215   PT        0.284227    0.155015    0.686732     0.004505
AU3216   AU        0.283495    0.192724    0.726299     0.007504
PT3217   PT        0.319485    0.154687    0.725675     0.004505
AU3218   AU        0.320296    0.191727    0.687957     0.007504
PT3219   PT        0.356425    0.155474    0.687437     0.004505
PT3220   PT        0.354935    0.192016    0.726040     0.004505
PT3221   PT        0.391149    0.154959    0.726528     0.004505
PT3222   PT        0.392078    0.191827    0.689740     0.004505
PT3223   PT        0.427536    0.153041    0.689158     0.004505
AU3224   AU        0.426800    0.191429    0.728879     0.007504
PT3225   PT        0.461167    0.154716    0.727009     0.004505
PT3226   PT        0.462712    0.192441    0.689856     0.004505
AU3227   AU        0.498281    0.154144    0.687818     0.007504
PT3228   PT        0.500466    0.191688    0.726453     0.004505
AU3229   AU        0.534472    0.154853    0.726149     0.007504
PT3230   PT        0.535956    0.191264    0.688374     0.004505
PT3231   PT        0.570231    0.154340    0.687753     0.004505
PT3232   PT        0.570025    0.190733    0.725892     0.004505
AU3233   AU        0.604953    0.153963    0.725133     0.007504
PT3234   PT        0.605559    0.191040    0.688811     0.004505
PT3235   PT        0.638973    0.154783    0.688690     0.004505
PT3236   PT        0.639991    0.191445    0.724880     0.004505
PT3237   PT        0.676321    0.193516    0.686773     0.004505
PT3238   PT        0.108184    0.269383    0.686798     0.004505
AU3239   AU        0.142667    0.232278    0.685164     0.007504
PT3240   PT        0.141723    0.270428    0.725541     0.004505
AU3241   AU        0.178829    0.230989    0.725511     0.007504
AU3242   AU        0.177635    0.268574    0.688545     0.007504
AU3243   AU        0.213292    0.230732    0.688056     0.007504
AU3244   AU        0.213265    0.269246    0.727022     0.007504
PT3245   PT        0.249272    0.229816    0.725571     0.004505
AU3246   AU        0.247374    0.266991    0.687760     0.007504
PT3247   PT        0.285359    0.228662    0.688491     0.004505
PT3248   PT        0.284708    0.267377    0.726781     0.004505
PT3249   PT        0.319285    0.229671    0.726281     0.004505
PT3250   PT        0.320013    0.268761    0.690190     0.004505
PT3251   PT        0.356590    0.230213    0.688039     0.004505
PT3252   PT        0.357687    0.267308    0.726332     0.004505
PT3253   PT        0.390899    0.228596    0.726600     0.004505
AU3254   AU        0.392235    0.266659    0.686672     0.007504
PT3255   PT        0.426802    0.228900    0.688590     0.004505
PT3256   PT        0.427157    0.268059    0.726381     0.004505
PT3257   PT        0.463423    0.230503    0.727743     0.004505
AU3258   AU        0.463174    0.268161    0.686982     0.007504
AU3259   AU        0.498888    0.228676    0.688507     0.007504
AU3260   AU        0.497485    0.266093    0.727039     0.007504
AU3261   AU        0.534538    0.229393    0.727430     0.007504
AU3262   AU        0.535169    0.270051    0.688691     0.007504
PT3263   PT        0.570786    0.229114    0.688936     0.004505
PT3264   PT        0.573487    0.267128    0.726586     0.004505
PT3265   PT        0.606716    0.229525    0.726659     0.004505
PT3266   PT        0.606807    0.266649    0.686673     0.004505
PT3267   PT        0.641784    0.228754    0.688531     0.004505
AU3268   AU        0.640804    0.267666    0.727177     0.007504
PT3269   PT        0.676333    0.230176    0.726419     0.004505
PT3270   PT        0.675598    0.268705    0.688919     0.004505
AU3271   AU        0.712236    0.231336    0.687838     0.007504
PT3272   PT        0.711430    0.270073    0.725486     0.004505
PT3273   PT        0.747548    0.269398    0.688924     0.004505
PT3274   PT        0.107751    0.307435    0.724045     0.004505
PT3275   PT        0.107414    0.346753    0.687200     0.004505
PT3276   PT        0.142561    0.306913    0.688802     0.004505
PT3277   PT        0.141739    0.345776    0.725291     0.004505
PT3278   PT        0.176981    0.306733    0.725678     0.004505
PT3279   PT        0.174591    0.347490    0.688422     0.004505
AU3280   AU        0.214123    0.306178    0.689507     0.007504
PT3281   PT        0.211569    0.344138    0.726672     0.004505
PT3282   PT        0.248395    0.308150    0.726088     0.004505
AU3283   AU        0.246050    0.346899    0.688029     0.007504
AU3284   AU        0.284157    0.306954    0.689708     0.007504
PT3285   PT        0.282218    0.347549    0.725069     0.004505
PT3286   PT        0.318206    0.306100    0.727804     0.004505
AU3287   AU        0.319460    0.345604    0.688374     0.007504
AU3288   AU        0.354525    0.306916    0.688835     0.007504
AU3289   AU        0.356003    0.345095    0.727579     0.007504
PT3290   PT        0.391531    0.307474    0.724617     0.004505
AU3291   AU        0.392255    0.345396    0.687724     0.007504
AU3292   AU        0.426892    0.307847    0.686023     0.007504
AU3293   AU        0.427091    0.348945    0.727834     0.007504
PT3294   PT        0.463362    0.305576    0.728184     0.004505
AU3295   AU        0.461273    0.343930    0.687944     0.007504
AU3296   AU        0.499529    0.307109    0.688229     0.007504
PT3297   PT        0.499392    0.344024    0.725771     0.004505
PT3298   PT        0.536360    0.305775    0.727213     0.004505
PT3299   PT        0.537378    0.345310    0.687498     0.004505
AU3300   AU        0.572802    0.305525    0.690683     0.007504
AU3301   AU        0.570423    0.344331    0.727542     0.007504
AU3302   AU        0.607612    0.306385    0.725662     0.007504
AU3303   AU        0.606287    0.346248    0.690015     0.007504
PT3304   PT        0.641150    0.307098    0.689898     0.004505
AU3305   AU        0.641746    0.346753    0.727092     0.007504
PT3306   PT        0.677226    0.306761    0.725965     0.004505
AU3307   AU        0.678466    0.346631    0.688674     0.007504
AU3308   AU        0.712549    0.307367    0.687439     0.007504
PT3309   PT        0.713328    0.347295    0.725446     0.004505
AU3310   AU        0.746270    0.308378    0.726424     0.007504
PT3311   PT        0.748387    0.343802    0.690482     0.004505
PT3312   PT        0.073367    0.385810    0.686679     0.004505
PT3313   PT        0.072758    0.423724    0.724216     0.004505
PT3314   PT        0.107554    0.386251    0.723780     0.004505
PT3315   PT        0.106243    0.424553    0.688834     0.004505
AU3316   AU        0.142008    0.383752    0.688587     0.007504
AU3317   AU        0.142870    0.423747    0.726333     0.007504
PT3318   PT        0.178778    0.383662    0.726751     0.004505
PT3319   PT        0.176502    0.422596    0.687026     0.004505
AU3320   AU        0.211734    0.384497    0.689056     0.007504
PT3321   PT        0.213202    0.424756    0.726861     0.004505
AU3322   AU        0.246801    0.387187    0.725704     0.007504
PT3323   PT        0.247770    0.425279    0.687966     0.004505
PT3324   PT        0.285284    0.388416    0.688679     0.004505
PT3325   PT        0.285459    0.422858    0.727598     0.004505
AU3326   AU        0.320079    0.385854    0.727598     0.007504
AU3327   AU        0.321119    0.422675    0.689505     0.007504
AU3328   AU        0.355039    0.382927    0.690976     0.007504
PT3329   PT        0.354467    0.423165    0.727726     0.004505
AU3330   AU        0.391713    0.384821    0.729088     0.007504
AU3331   AU        0.389538    0.422695    0.688916     0.007504
AU3332   AU        0.425813    0.384853    0.687972     0.007504
AU3333   AU        0.426951    0.424977    0.726737     0.007504
AU3334   AU        0.463991    0.382989    0.727849     0.007504
AU3335   AU        0.463185    0.423499    0.688166     0.007504
AU3336   AU        0.499731    0.382722    0.688280     0.007504
AU3337   AU        0.497509    0.422491    0.728361     0.007504
AU3338   AU        0.534195    0.384096    0.727393     0.007504
AU3339   AU        0.533404    0.424025    0.686645     0.007504
PT3340   PT        0.570711    0.382377    0.690406     0.004505
AU3341   AU        0.571564    0.421282    0.726690     0.007504
AU3342   AU        0.604836    0.384220    0.727822     0.007504
PT3343   PT        0.607220    0.423876    0.685852     0.004505
AU3344   AU        0.641884    0.385376    0.688262     0.007504
AU3345   AU        0.643517    0.422271    0.727179     0.007504
AU3346   AU        0.677866    0.384575    0.724822     0.007504
PT3347   PT        0.676940    0.424133    0.687652     0.004505
PT3348   PT        0.713492    0.381712    0.687814     0.004505
AU3349   AU        0.712181    0.423396    0.724380     0.007504
AU3350   AU        0.746548    0.386161    0.725278     0.007504
AU3351   AU        0.747881    0.423551    0.688102     0.007504
PT3352   PT        0.781442    0.384644    0.685854     0.004505
AU3353   AU        0.781363    0.462246    0.765431     0.007504
PT3354   PT        0.071610    0.463843    0.688823     0.004505
PT3355   PT        0.071343    0.499650    0.725771     0.004505
PT3356   PT        0.106647    0.461467    0.725428     0.004505
PT3357   PT        0.107991    0.500535    0.687193     0.004505
AU3358   AU        0.141525    0.462139    0.689544     0.007504
AU3359   AU        0.141387    0.500414    0.726326     0.007504
PT3360   PT        0.178786    0.462080    0.726963     0.004505
AU3361   AU        0.177504    0.499695    0.690078     0.007504
PT3362   PT        0.214812    0.462356    0.689652     0.004505
AU3363   AU        0.213514    0.500070    0.727306     0.007504
AU3364   AU        0.250668    0.464095    0.728546     0.007504
AU3365   AU        0.247084    0.502824    0.687507     0.007504
PT3366   PT        0.284092    0.462305    0.687884     0.004505
AU3367   AU        0.284856    0.501287    0.728765     0.007504
AU3368   AU        0.319950    0.464205    0.727215     0.007504
AU3369   AU        0.320367    0.502481    0.687936     0.007504
PT3370   PT        0.356195    0.464079    0.689363     0.004505
AU3371   AU        0.356436    0.501161    0.729683     0.007504
AU3372   AU        0.390823    0.461988    0.726298     0.007504
AU3373   AU        0.393550    0.500973    0.687842     0.007504
AU3374   AU        0.428499    0.460524    0.685972     0.007504
PT3375   PT        0.424926    0.500069    0.726592     0.004505
PT3376   PT        0.461084    0.462828    0.728658     0.004505
AU3377   AU        0.460880    0.499767    0.685626     0.007504
AU3378   AU        0.498718    0.462537    0.688722     0.007504
AU3379   AU        0.499133    0.502907    0.727359     0.007504
AU3380   AU        0.533754    0.462509    0.727543     0.007504
AU3381   AU        0.534131    0.501115    0.688514     0.007504
PT3382   PT        0.571438    0.461580    0.688156     0.004505
AU3383   AU        0.573011    0.500728    0.726907     0.007504
PT3384   PT        0.606587    0.459898    0.725583     0.004505
PT3385   PT        0.606453    0.501391    0.687044     0.004505
AU3386   AU        0.641964    0.461981    0.687775     0.007504
AU3387   AU        0.641558    0.501162    0.724418     0.007504
AU3388   AU        0.676881    0.461154    0.725864     0.007504
AU3389   AU        0.677291    0.499203    0.688449     0.007504
PT3390   PT        0.713227    0.461514    0.687940     0.004505
PT3391   PT        0.714211    0.499552    0.726525     0.004505
PT3392   PT        0.748672    0.462557    0.726101     0.004505
PT3393   PT        0.747310    0.499769    0.686457     0.004505
PT3394   PT        0.782149    0.464355    0.687187     0.004505
AU3395   AU        0.783623    0.496706    0.726391     0.007504
PT3396   PT        0.073676    0.536939    0.686512     0.004505
PT3397   PT        0.106413    0.537484    0.726207     0.004505
AU3398   AU        0.108455    0.576672    0.687947     0.007504
PT3399   PT        0.141280    0.538732    0.687526     0.004505
AU3400   AU        0.141986    0.577985    0.725503     0.007504
PT3401   PT        0.176321    0.540291    0.727082     0.004505
PT3402   PT        0.176796    0.580229    0.689084     0.004505
AU3403   AU        0.209977    0.540641    0.688646     0.007504
AU3404   AU        0.213218    0.578600    0.725255     0.007504
AU3405   AU        0.251481    0.539776    0.727663     0.007504
AU3406   AU        0.249956    0.581066    0.687880     0.007504
PT3407   PT        0.284397    0.539841    0.687898     0.004505
AU3408   AU        0.283960    0.579182    0.727558     0.007504
PT3409   PT        0.318716    0.539943    0.724851     0.004505
AU3410   AU        0.318757    0.577714    0.687694     0.007504
AU3411   AU        0.356914    0.538912    0.690766     0.007504
PT3412   PT        0.354476    0.578489    0.724766     0.004505
AU3413   AU        0.390735    0.540006    0.727329     0.007504
PT3414   PT        0.390927    0.577785    0.690060     0.004505
PT3415   PT        0.430143    0.539497    0.688453     0.004505
AU3416   AU        0.427224    0.577707    0.727938     0.007504
PT3417   PT        0.461457    0.539006    0.728082     0.004505
AU3418   AU        0.462569    0.577537    0.688140     0.007504
AU3419   AU        0.497793    0.537429    0.686572     0.007504
AU3420   AU        0.500221    0.578665    0.727967     0.007504
AU3421   AU        0.536012    0.538050    0.727805     0.007504
PT3422   PT        0.534531    0.576711    0.689090     0.004505
AU3423   AU        0.571635    0.540229    0.688927     0.007504
AU3424   AU        0.572477    0.577710    0.725837     0.007504
PT3425   PT        0.608556    0.539069    0.726853     0.004505
AU3426   AU        0.610098    0.575131    0.687332     0.007504
AU3427   AU        0.643904    0.538186    0.687953     0.007504
PT3428   PT        0.643294    0.575633    0.727008     0.004505
PT3429   PT        0.678565    0.538126    0.726153     0.004505
PT3430   PT        0.678964    0.577749    0.687106     0.004505
PT3431   PT        0.712407    0.538600    0.688878     0.004505
PT3432   PT        0.712482    0.577502    0.724827     0.004505
PT3433   PT        0.747116    0.539141    0.727225     0.004505
PT3434   PT        0.746783    0.576752    0.686147     0.004505
PT3435   PT        0.820037    0.496314    0.692412     0.004505
PT3436   PT        0.109382    0.616716    0.724078     0.004505
PT3437   PT        0.107759    0.655187    0.687230     0.004505
PT3438   PT        0.141495    0.618159    0.685504     0.004505
PT3439   PT        0.142707    0.655848    0.722038     0.004505
AU3440   AU        0.176588    0.619540    0.725613     0.007504
AU3441   AU        0.177141    0.658380    0.685989     0.007504
PT3442   PT        0.212983    0.618025    0.688653     0.004505
PT3443   PT        0.212215    0.656609    0.725079     0.004505
AU3444   AU        0.248205    0.619407    0.727931     0.007504
PT3445   PT        0.246619    0.655384    0.686890     0.004505
PT3446   PT        0.284659    0.618668    0.687886     0.004505
AU3447   AU        0.284666    0.655229    0.725205     0.007504
AU3448   AU        0.320360    0.616743    0.726327     0.007504
AU3449   AU        0.320360    0.655151    0.689047     0.007504
PT3450   PT        0.355530    0.616542    0.686862     0.004505
AU3451   AU        0.354426    0.658469    0.726188     0.007504
AU3452   AU        0.392049    0.615603    0.726857     0.007504
AU3453   AU        0.392375    0.653876    0.690920     0.007504
AU3454   AU        0.429023    0.615119    0.689489     0.007504
PT3455   PT        0.427966    0.656296    0.727070     0.004505
AU3456   AU        0.463249    0.614453    0.726409     0.007504
PT3457   PT        0.462972    0.652108    0.688811     0.004505
AU3458   AU        0.498251    0.614854    0.687393     0.007504
AU3459   AU        0.497990    0.652693    0.725495     0.007504
PT3460   PT        0.535271    0.615547    0.724109     0.004505
AU3461   AU        0.533893    0.657616    0.687740     0.007504
PT3462   PT        0.569147    0.618674    0.686159     0.004505
AU3463   AU        0.570191    0.657589    0.726353     0.007504
PT3464   PT        0.608899    0.616650    0.723620     0.004505
PT3465   PT        0.606101    0.655962    0.687103     0.004505
AU3466   AU        0.643083    0.615718    0.688463     0.007504
AU3467   AU        0.642057    0.655205    0.724024     0.007504
PT3468   PT        0.677125    0.616856    0.725847     0.004505
AU3469   AU        0.677994    0.655729    0.684636     0.007504
PT3470   PT        0.711979    0.616273    0.686912     0.004505
PT3471   PT        0.711306    0.653719    0.723212     0.004505
PT3472   PT        0.746645    0.617346    0.723829     0.004505
AU3473   AU        0.745909    0.652743    0.684900     0.007504
PT3474   PT        0.142390    0.694112    0.686367     0.004505
PT3475   PT        0.178196    0.692190    0.725533     0.004505
PT3476   PT        0.179214    0.731916    0.686766     0.004505
AU3477   AU        0.212869    0.695178    0.686958     0.007504
AU3478   AU        0.214125    0.731037    0.724696     0.007504
AU3479   AU        0.246860    0.693456    0.724109     0.007504
AU3480   AU        0.247153    0.731454    0.687687     0.007504
PT3481   PT        0.284179    0.693934    0.686436     0.004505
AU3482   AU        0.283720    0.731634    0.725240     0.007504
PT3483   PT        0.317955    0.693689    0.726733     0.004505
AU3484   AU        0.320192    0.730904    0.688663     0.007504
PT3485   PT        0.355856    0.694221    0.688336     0.004505
PT3486   PT        0.356326    0.729545    0.725013     0.004505
AU3487   AU        0.391429    0.694403    0.726210     0.007504
PT3488   PT        0.390626    0.730678    0.688204     0.004505
PT3489   PT        0.426655    0.694043    0.687328     0.004505
PT3490   PT        0.428739    0.732020    0.726340     0.004505
AU3491   AU        0.463965    0.694725    0.725198     0.007504
PT3492   PT        0.464808    0.731936    0.686485     0.004505
AU3493   AU        0.497883    0.694534    0.687066     0.007504
PT3494   PT        0.500719    0.731585    0.725199     0.004505
PT3495   PT        0.536501    0.696297    0.724907     0.004505
AU3496   AU        0.535335    0.733627    0.686751     0.007504
PT3497   PT        0.570075    0.693906    0.687946     0.004505
AU3498   AU        0.570297    0.732645    0.725703     0.007504
PT3499   PT        0.606414    0.692499    0.723687     0.004505
AU3500   AU        0.606999    0.730619    0.685735     0.007504
PT3501   PT        0.641809    0.693769    0.685811     0.004505
PT3502   PT        0.642519    0.730904    0.721967     0.004505
AU3503   AU        0.677593    0.691120    0.723217     0.007504
PT3504   PT        0.677499    0.730293    0.685889     0.004505
PT3505   PT        0.713286    0.691790    0.684971     0.004505
PT3506   PT        0.214098    0.769498    0.688152     0.004505
AU3507   AU        0.248384    0.769453    0.725271     0.007504
PT3508   PT        0.247848    0.807626    0.686317     0.004505
PT3509   PT        0.284344    0.769508    0.687150     0.004505
AU3510   AU        0.281627    0.806085    0.723344     0.007504
PT3511   PT        0.319775    0.769396    0.726281     0.004505
PT3512   PT        0.320525    0.807746    0.688724     0.004505
AU3513   AU        0.355456    0.770432    0.688041     0.007504
PT3514   PT        0.358121    0.807798    0.725310     0.004505
PT3515   PT        0.390949    0.768656    0.726074     0.004505
AU3516   AU        0.392812    0.807839    0.686223     0.007504
AU3517   AU        0.427928    0.770945    0.687294     0.007504
PT3518   PT        0.426343    0.808142    0.725126     0.004505
PT3519   PT        0.463500    0.770715    0.724840     0.004505
PT3520   PT        0.463511    0.806922    0.686305     0.004505
AU3521   AU        0.500614    0.771849    0.688350     0.007504
PT3522   PT        0.497581    0.808369    0.727314     0.004505
PT3523   PT        0.536140    0.769810    0.725955     0.004505
PT3524   PT        0.535712    0.806412    0.687946     0.004505
AU3525   AU        0.571065    0.768258    0.687415     0.007504
PT3526   PT        0.571477    0.806839    0.722817     0.004505
PT3527   PT        0.605723    0.768063    0.723741     0.004505
AU3528   AU        0.606650    0.806398    0.684940     0.007504
PT3529   PT        0.640862    0.769581    0.686650     0.004505
AU3530   AU        0.357492    0.843927    0.686994     0.007504
AU3531   AU        0.392048    0.845416    0.725057     0.007504
AU3532   AU        0.428283    0.842880    0.686519     0.007504
PT3533   PT        0.460937    0.843935    0.724837     0.004505
AU3534   AU        0.498594    0.844804    0.688938     0.007504
PT3535   PT        0.390657    0.116843    0.761760     0.004505
AU3536   AU        0.461738    0.116831    0.762362     0.007504
PT3537   PT        0.248111    0.192556    0.763682     0.004505
PT3538   PT        0.283764    0.156058    0.763793     0.004505
PT3539   PT        0.284683    0.191540    0.801444     0.004505
PT3540   PT        0.319860    0.192357    0.763350     0.004505
PT3541   PT        0.356372    0.155515    0.764011     0.004505
AU3542   AU        0.355941    0.192839    0.802520     0.007504
PT3543   PT        0.391856    0.154006    0.801180     0.004505
PT3544   PT        0.390436    0.191968    0.764301     0.004505
PT3545   PT        0.427412    0.152263    0.763818     0.004505
PT3546   PT        0.426031    0.190480    0.803289     0.004505
PT3547   PT        0.463217    0.154693    0.801916     0.004505
PT3548   PT        0.463157    0.192041    0.763902     0.004505
PT3549   PT        0.498348    0.153332    0.762482     0.004505
PT3550   PT        0.497414    0.192515    0.802689     0.004505
AU3551   AU        0.534016    0.193689    0.764568     0.007504
PT3552   PT        0.569961    0.154729    0.763008     0.004505
AU3553   AU        0.571097    0.190970    0.799291     0.007504
PT3554   PT        0.606196    0.192043    0.762969     0.004505
AU3555   AU        0.178180    0.269703    0.764294     0.007504
AU3556   AU        0.214540    0.231495    0.763414     0.007504
PT3557   PT        0.212279    0.270458    0.803217     0.004505
PT3558   PT        0.248227    0.231140    0.800863     0.004505
AU3559   AU        0.248376    0.267904    0.762946     0.007504
PT3560   PT        0.283767    0.229934    0.764381     0.004505
PT3561   PT        0.284806    0.268182    0.801600     0.004505
AU3562   AU        0.318424    0.229342    0.802178     0.007504
AU3563   AU        0.319467    0.266864    0.764578     0.007504
PT3564   PT        0.356015    0.230061    0.767472     0.004505
AU3565   AU        0.354205    0.268321    0.803068     0.007504
PT3566   PT        0.392586    0.228779    0.802636     0.004505
AU3567   AU        0.392258    0.266924    0.766684     0.007504
AU3568   AU        0.427796    0.228777    0.765692     0.007504
AU3569   AU        0.427130    0.269298    0.802400     0.007504
AU3570   AU        0.462148    0.228319    0.801882     0.007504
AU3571   AU        0.461709    0.268333    0.765456     0.007504
AU3572   AU        0.498631    0.228358    0.765992     0.007504
PT3573   PT        0.499994    0.266630    0.801740     0.004505
PT3574   PT        0.535112    0.229820    0.802109     0.004505
AU3575   AU        0.534281    0.267966    0.764627     0.007504
AU3576   AU        0.571174    0.230164    0.764815     0.007504
PT3577   PT        0.569875    0.269150    0.801003     0.004505
PT3578   PT        0.605271    0.231287    0.803162     0.004505
PT3579   PT        0.606560    0.269596    0.764298     0.004505
AU3580   AU        0.640258    0.231101    0.766038     0.007504
PT3581   PT        0.641418    0.268109    0.801525     0.004505
AU3582   AU        0.676423    0.269087    0.764634     0.007504
AU3583   AU        0.142150    0.307990    0.762778     0.007504
AU3584   AU        0.177834    0.307563    0.800967     0.007504
AU3585   AU        0.177016    0.348064    0.763583     0.007504
AU3586   AU        0.211220    0.307978    0.763108     0.007504
PT3587   PT        0.212974    0.347398    0.800957     0.004505
PT3588   PT        0.247827    0.307980    0.801820     0.004505
AU3589   AU        0.247936    0.346660    0.763440     0.007504
PT3590   PT        0.282247    0.311035    0.765598     0.004505
PT3591   PT        0.284942    0.345759    0.804319     0.004505
AU3592   AU        0.319615    0.306438    0.804189     0.007504
AU3593   AU        0.319895    0.346632    0.766289     0.007504
AU3594   AU        0.353937    0.307077    0.765795     0.007504
AU3595   AU        0.355523    0.345914    0.804623     0.007504
PT3596   PT        0.391245    0.305140    0.804656     0.004505
AU3597   AU        0.389372    0.347085    0.767180     0.007504
PT3598   PT        0.425254    0.305904    0.767433     0.004505
PT3599   PT        0.427099    0.342938    0.804350     0.004505
PT3600   PT        0.463875    0.307228    0.804970     0.004505
PT3601   PT        0.462201    0.345929    0.768091     0.004505
PT3602   PT        0.498102    0.305555    0.765018     0.004505
AU3603   AU        0.499060    0.344448    0.803558     0.007504
AU3604   AU        0.534731    0.307351    0.801887     0.007504
PT3605   PT        0.535572    0.343042    0.762950     0.004505
PT3606   PT        0.570799    0.307395    0.766658     0.004505
AU3607   AU        0.570748    0.345987    0.803843     0.007504
PT3608   PT        0.606470    0.306337    0.802760     0.004505
AU3609   AU        0.607140    0.345539    0.766021     0.007504
PT3610   PT        0.641976    0.305781    0.763812     0.004505
PT3611   PT        0.641152    0.345884    0.801405     0.004505
PT3612   PT        0.674748    0.306544    0.799186     0.004505
PT3613   PT        0.677487    0.347223    0.762839     0.004505
PT3614   PT        0.709895    0.307068    0.762472     0.004505
PT3615   PT        0.107084    0.425105    0.763955     0.004505
PT3616   PT        0.142231    0.386651    0.762290     0.004505
PT3617   PT        0.142491    0.425705    0.799479     0.004505
PT3618   PT        0.178231    0.387820    0.801830     0.004505
PT3619   PT        0.178306    0.423756    0.762679     0.004505
PT3620   PT        0.214017    0.386174    0.765207     0.004505
PT3621   PT        0.213502    0.424132    0.802074     0.004505
PT3622   PT        0.249548    0.386253    0.802506     0.004505
AU3623   AU        0.250417    0.424825    0.765623     0.007504
PT3624   PT        0.285264    0.382819    0.765879     0.004505
AU3625   AU        0.283458    0.424885    0.805128     0.007504
PT3626   PT        0.318797    0.385296    0.804196     0.004505
AU3627   AU        0.318740    0.422707    0.767067     0.007504
AU3628   AU        0.354498    0.384348    0.767446     0.007504
AU3629   AU        0.356293    0.423683    0.803893     0.007504
AU3630   AU        0.392459    0.383812    0.803686     0.007504
AU3631   AU        0.390533    0.422236    0.767723     0.007504
AU3632   AU        0.427952    0.385472    0.766856     0.007504
AU3633   AU        0.426332    0.421989    0.805769     0.007504
PT3634   PT        0.461634    0.385635    0.804818     0.004505
PT3635   PT        0.459549    0.424884    0.765862     0.004505
PT3636   PT        0.500899    0.383367    0.765793     0.004505
PT3637   PT        0.499268    0.424257    0.805311     0.004505
AU3638   AU        0.536482    0.384481    0.805522     0.007504
PT3639   PT        0.536676    0.422221    0.766672     0.004505
PT3640   PT        0.570632    0.383153    0.765636     0.004505
PT3641   PT        0.571166    0.423478    0.803313     0.004505
PT3642   PT        0.605314    0.385610    0.803120     0.004505
AU3643   AU        0.607490    0.423632    0.763024     0.007504
AU3644   AU        0.642090    0.384759    0.764450     0.007504
AU3645   AU        0.640795    0.424053    0.800536     0.007504
PT3646   PT        0.676436    0.386357    0.799395     0.004505
PT3647   PT        0.677785    0.424364    0.764047     0.004505
PT3648   PT        0.711697    0.386423    0.762242     0.004505
PT3649   PT        0.709890    0.424710    0.800066     0.004505
PT3650   PT        0.745085    0.426098    0.763225     0.004505
PT3651   PT        0.106794    0.498470    0.763709     0.004505
PT3652   PT        0.142563    0.462822    0.764849     0.004505
AU3653   AU        0.142862    0.499137    0.803351     0.007504
AU3654   AU        0.178669    0.461120    0.803265     0.007504
AU3655   AU        0.177740    0.499015    0.764926     0.007504
PT3656   PT        0.213160    0.461449    0.764647     0.004505
AU3657   AU        0.213002    0.501077    0.803424     0.007504
AU3658   AU        0.249432    0.462947    0.802273     0.007504
AU3659   AU        0.249178    0.500701    0.767122     0.007504
PT3660   PT        0.286189    0.461573    0.765157     0.004505
AU3661   AU        0.285044    0.500267    0.804306     0.007504
PT3662   PT        0.320695    0.463431    0.804400     0.004505
AU3663   AU        0.320032    0.502666    0.766120     0.007504
AU3664   AU        0.355357    0.460691    0.765625     0.007504
PT3665   PT        0.356585    0.503197    0.803612     0.004505
PT3666   PT        0.389363    0.462994    0.804867     0.004505
AU3667   AU        0.389911    0.501182    0.765447     0.007504
PT3668   PT        0.424300    0.462235    0.767517     0.004505
AU3669   AU        0.427225    0.501748    0.805181     0.007504
AU3670   AU        0.462271    0.464180    0.804276     0.007504
AU3671   AU        0.461876    0.501150    0.763695     0.007504
PT3672   PT        0.498343    0.463262    0.767465     0.004505
AU3673   AU        0.499425    0.501397    0.805174     0.007504
PT3674   PT        0.535765    0.462464    0.801983     0.004505
AU3675   AU        0.536187    0.502536    0.765884     0.007504
PT3676   PT        0.570976    0.460383    0.763997     0.004505
PT3677   PT        0.572605    0.500435    0.802959     0.004505
PT3678   PT        0.606340    0.463595    0.803512     0.004505
PT3679   PT        0.607561    0.500278    0.767291     0.004505
PT3680   PT        0.643222    0.462532    0.762935     0.004505
PT3681   PT        0.641094    0.501135    0.803772     0.004505
PT3682   PT        0.676778    0.462472    0.801941     0.004505
AU3683   AU        0.676014    0.500241    0.763698     0.007504
PT3684   PT        0.710850    0.461826    0.760916     0.004505
PT3685   PT        0.711768    0.497653    0.799909     0.004505
PT3686   PT        0.748555    0.499457    0.762949     0.004505
PT3687   PT        0.141632    0.536300    0.764544     0.004505
PT3688   PT        0.178685    0.538057    0.800438     0.004505
PT3689   PT        0.179054    0.577708    0.762790     0.004505
PT3690   PT        0.212153    0.541307    0.763702     0.004505
PT3691   PT        0.214898    0.579543    0.801108     0.004505
PT3692   PT        0.247686    0.540895    0.802918     0.004505
PT3693   PT        0.250700    0.580121    0.765379     0.004505
PT3694   PT        0.284307    0.538780    0.767957     0.004505
AU3695   AU        0.285280    0.578847    0.801625     0.007504
AU3696   AU        0.321505    0.540260    0.804493     0.007504
AU3697   AU        0.319509    0.578532    0.764938     0.007504
AU3698   AU        0.356788    0.541037    0.766059     0.007504
PT3699   PT        0.355902    0.578554    0.802998     0.004505
PT3700   PT        0.392166    0.541634    0.805263     0.004505
AU3701   AU        0.391951    0.578432    0.765757     0.007504
AU3702   AU        0.425092    0.541086    0.765913     0.007504
PT3703   PT        0.426768    0.578307    0.804059     0.004505
AU3704   AU        0.461546    0.538643    0.803453     0.007504
AU3705   AU        0.461959    0.578927    0.766728     0.007504
AU3706   AU        0.497039    0.540517    0.765519     0.007504
AU3707   AU        0.500952    0.578966    0.802447     0.007504
PT3708   PT        0.536220    0.538177    0.805525     0.004505
AU3709   AU        0.535125    0.577003    0.764999     0.007504
AU3710   AU        0.571859    0.541324    0.764218     0.007504
PT3711   PT        0.570313    0.578069    0.802977     0.004505
PT3712   PT        0.607241    0.538442    0.802717     0.004505
AU3713   AU        0.605489    0.578862    0.763339     0.007504
AU3714   AU        0.641545    0.538250    0.764323     0.007504
AU3715   AU        0.641594    0.575811    0.800897     0.007504
PT3716   PT        0.676865    0.537670    0.801427     0.004505
PT3717   PT        0.676994    0.576418    0.763327     0.004505
AU3718   AU        0.711944    0.537588    0.765111     0.007504
AU3719   AU        0.143448    0.617091    0.762801     0.007504
AU3720   AU        0.180107    0.616506    0.799856     0.007504
PT3721   PT        0.177960    0.655171    0.763068     0.004505
PT3722   PT        0.214547    0.617120    0.763523     0.004505
PT3723   PT        0.214022    0.654594    0.800970     0.004505
PT3724   PT        0.250744    0.618345    0.801526     0.004505
AU3725   AU        0.249699    0.657085    0.762753     0.007504
PT3726   PT        0.286120    0.618329    0.765161     0.004505
PT3727   PT        0.285858    0.655458    0.801859     0.004505
PT3728   PT        0.320355    0.615644    0.804253     0.004505
AU3729   AU        0.319838    0.655076    0.763446     0.007504
PT3730   PT        0.354734    0.617199    0.764693     0.004505
PT3731   PT        0.356146    0.655321    0.802258     0.004505
AU3732   AU        0.390944    0.618071    0.802201     0.007504
PT3733   PT        0.391480    0.655135    0.764641     0.004505
PT3734   PT        0.426337    0.617157    0.763995     0.004505
PT3735   PT        0.426576    0.654380    0.801786     0.004505
AU3736   AU        0.462573    0.618002    0.802834     0.007504
AU3737   AU        0.462857    0.654791    0.764431     0.007504
PT3738   PT        0.497451    0.617254    0.764867     0.004505
PT3739   PT        0.498168    0.656233    0.803951     0.004505
PT3740   PT        0.534104    0.617184    0.803411     0.004505
PT3741   PT        0.535340    0.655854    0.763782     0.004505
PT3742   PT        0.568515    0.616729    0.765467     0.004505
PT3743   PT        0.570682    0.654866    0.800564     0.004505
AU3744   AU        0.605479    0.617048    0.800159     0.007504
AU3745   AU        0.603865    0.653124    0.761110     0.007504
PT3746   PT        0.640759    0.614918    0.762098     0.004505
PT3747   PT        0.639729    0.652313    0.798523     0.004505
PT3748   PT        0.676303    0.616806    0.798424     0.004505
PT3749   PT        0.676715    0.652919    0.761239     0.004505
PT3750   PT        0.712254    0.615199    0.760670     0.004505
PT3751   PT        0.214858    0.693651    0.763751     0.004505
PT3752   PT        0.249554    0.693874    0.800658     0.004505
PT3753   PT        0.250544    0.733094    0.762056     0.004505
PT3754   PT        0.283989    0.693944    0.763036     0.004505
AU3755   AU        0.284376    0.732418    0.798671     0.007504
AU3756   AU        0.321729    0.693337    0.802350     0.007504
PT3757   PT        0.321296    0.730773    0.764600     0.004505
PT3758   PT        0.357592    0.693116    0.764881     0.004505
PT3759   PT        0.357862    0.731952    0.802101     0.004505
AU3760   AU        0.392667    0.691862    0.802830     0.007504
AU3761   AU        0.392634    0.729658    0.764541     0.007504
PT3762   PT        0.427738    0.692253    0.765005     0.004505
PT3763   PT        0.426459    0.730810    0.801515     0.004505
PT3764   PT        0.462568    0.692348    0.802125     0.004505
PT3765   PT        0.463154    0.731442    0.763884     0.004505
PT3766   PT        0.501444    0.694599    0.763245     0.004505
AU3767   AU        0.496711    0.729632    0.800920     0.007504
PT3768   PT        0.534320    0.694610    0.801757     0.004505
PT3769   PT        0.536740    0.734280    0.762821     0.004505
PT3770   PT        0.571137    0.693679    0.762348     0.004505
PT3771   PT        0.571338    0.730626    0.798199     0.004505
PT3772   PT        0.606144    0.691199    0.797860     0.004505
PT3773   PT        0.604426    0.730187    0.761434     0.004505
PT3774   PT        0.641471    0.691183    0.759956     0.004505
PT3775   PT        0.285401    0.768878    0.763847     0.004505
PT3776   PT        0.356609    0.767607    0.763153     0.004505
AU3777   AU        0.392861    0.767423    0.800369     0.007504
PT3778   PT        0.392411    0.807657    0.762162     0.004505
AU3779   AU        0.428480    0.768382    0.763265     0.007504
PT3780   PT        0.461852    0.769287    0.800442     0.004505
PT3781   PT        0.461417    0.807131    0.761846     0.004505
PT3782   PT        0.497208    0.768316    0.763567     0.004505
PT3783   PT        0.571455    0.769126    0.762075     0.004505
AU3784   AU        0.392597    0.193096    0.840234     0.007504
PT3785   PT        0.463447    0.192460    0.840424     0.004505
PT3786   PT        0.248882    0.270592    0.837277     0.004505
PT3787   PT        0.320020    0.269114    0.839395     0.004505
PT3788   PT        0.355898    0.231518    0.838579     0.004505
AU3789   AU        0.353718    0.267426    0.878390     0.007504
AU3790   AU        0.391878    0.266754    0.840138     0.007504
PT3791   PT        0.426735    0.230352    0.839961     0.004505
PT3792   PT        0.425970    0.267937    0.876461     0.004505
PT3793   PT        0.463861    0.267456    0.841030     0.004505
PT3794   PT        0.500063    0.229592    0.839891     0.004505
PT3795   PT        0.499357    0.266578    0.875895     0.004505
PT3796   PT        0.533842    0.271661    0.839398     0.004505
PT3797   PT        0.605253    0.267710    0.838939     0.004505
PT3798   PT        0.247891    0.348355    0.840258     0.004505
PT3799   PT        0.284731    0.305587    0.840051     0.004505
AU3800   AU        0.283499    0.347497    0.876018     0.007504
PT3801   PT        0.318688    0.305890    0.877417     0.004505
PT3802   PT        0.319528    0.345044    0.841309     0.004505
AU3803   AU        0.353628    0.305480    0.838910     0.007504
PT3804   PT        0.354110    0.342269    0.876705     0.004505
PT3805   PT        0.390492    0.305349    0.876505     0.004505
AU3806   AU        0.391895    0.345799    0.840642     0.007504
PT3807   PT        0.427192    0.307502    0.841740     0.004505
PT3808   PT        0.428309    0.346755    0.877723     0.004505
PT3809   PT        0.462744    0.304518    0.878224     0.004505
AU3810   AU        0.463478    0.344428    0.841070     0.007504
PT3811   PT        0.498345    0.307315    0.841337     0.004505
PT3812   PT        0.498757    0.347785    0.876026     0.004505
PT3813   PT        0.534408    0.310249    0.877398     0.004505
PT3814   PT        0.535572    0.346124    0.839698     0.004505
PT3815   PT        0.570013    0.307236    0.839872     0.004505
PT3816   PT        0.570700    0.343999    0.876414     0.004505
PT3817   PT        0.606495    0.345597    0.838875     0.004505
AU3818   AU        0.215564    0.424194    0.877977     0.007504
PT3819   PT        0.214751    0.387911    0.841169     0.004505
PT3820   PT        0.247783    0.387260    0.878870     0.004505
AU3821   AU        0.249595    0.423619    0.840562     0.007504
PT3822   PT        0.282804    0.384747    0.839866     0.004505
PT3823   PT        0.284086    0.422748    0.877402     0.004505
PT3824   PT        0.319144    0.383733    0.876905     0.004505
AU3825   AU        0.319006    0.422645    0.842209     0.007504
PT3826   PT        0.355206    0.383981    0.841584     0.004505
AU3827   AU        0.358035    0.424868    0.878819     0.007504
AU3828   AU        0.392140    0.384336    0.877331     0.007504
PT3829   PT        0.391000    0.424560    0.841834     0.004505
AU3830   AU        0.428451    0.384984    0.841336     0.007504
PT3831   PT        0.427232    0.423693    0.877900     0.004505
AU3832   AU        0.463242    0.384926    0.876674     0.007504
AU3833   AU        0.463604    0.424861    0.841472     0.007504
PT3834   PT        0.501298    0.384552    0.840755     0.004505
PT3835   PT        0.498288    0.425709    0.875529     0.004505
PT3836   PT        0.536100    0.384402    0.875931     0.004505
PT3837   PT        0.535580    0.425259    0.842500     0.004505
PT3838   PT        0.572577    0.383643    0.839219     0.004505
PT3839   PT        0.571401    0.423116    0.876327     0.004505
PT3840   PT        0.607890    0.384284    0.875909     0.004505
AU3841   AU        0.607195    0.423696    0.839403     0.007504
PT3842   PT        0.641863    0.385462    0.837230     0.004505
AU3843   AU        0.673166    0.425291    0.835282     0.007504
AU3844   AU        0.179140    0.499041    0.840870     0.007504
PT3845   PT        0.215983    0.460962    0.840132     0.004505
PT3846   PT        0.250876    0.462089    0.876784     0.004505
PT3847   PT        0.249993    0.500798    0.839914     0.004505
PT3848   PT        0.284024    0.462027    0.840904     0.004505
PT3849   PT        0.283653    0.500991    0.875914     0.004505
PT3850   PT        0.321259    0.462676    0.877244     0.004505
PT3851   PT        0.318945    0.502832    0.840586     0.004505
AU3852   AU        0.356086    0.462547    0.842274     0.007504
PT3853   PT        0.357623    0.502836    0.878953     0.004505
AU3854   AU        0.392232    0.462125    0.878619     0.007504
AU3855   AU        0.393476    0.500376    0.842306     0.007504
PT3856   PT        0.427937    0.461091    0.841403     0.004505
PT3857   PT        0.428433    0.499932    0.879220     0.004505
AU3858   AU        0.463570    0.461100    0.877949     0.007504
PT3859   PT        0.463886    0.501358    0.842207     0.004505
PT3860   PT        0.498674    0.463179    0.842275     0.004505
PT3861   PT        0.498906    0.499436    0.878680     0.004505
PT3862   PT        0.533953    0.463548    0.878153     0.004505
PT3863   PT        0.536435    0.498771    0.840693     0.004505
AU3864   AU        0.570542    0.462527    0.840218     0.007504
PT3865   PT        0.572089    0.500862    0.875627     0.004505
PT3866   PT        0.605670    0.462725    0.875911     0.004505
PT3867   PT        0.606960    0.501999    0.841121     0.004505
AU3868   AU        0.641460    0.462653    0.837898     0.007504
AU3869   AU        0.679297    0.498788    0.840361     0.007504
PT3870   PT        0.212366    0.541345    0.839982     0.004505
PT3871   PT        0.248088    0.541440    0.876407     0.004505
PT3872   PT        0.249788    0.579192    0.839027     0.004505
PT3873   PT        0.283048    0.540757    0.839733     0.004505
PT3874   PT        0.284482    0.578858    0.876431     0.004505
PT3875   PT        0.320113    0.540375    0.875972     0.004505
PT3876   PT        0.319392    0.578426    0.840974     0.004505
AU3877   AU        0.356788    0.541488    0.842709     0.007504
PT3878   PT        0.354485    0.579323    0.878781     0.004505
PT3879   PT        0.394029    0.540497    0.878293     0.004505
AU3880   AU        0.390358    0.580917    0.841009     0.007504
AU3881   AU        0.426640    0.540445    0.842021     0.007504
PT3882   PT        0.427538    0.577998    0.878764     0.004505
AU3883   AU        0.462920    0.537674    0.878389     0.007504
AU3884   AU        0.464841    0.580158    0.840854     0.007504
PT3885   PT        0.497283    0.539991    0.841304     0.004505
PT3886   PT        0.499984    0.579353    0.875842     0.004505
PT3887   PT        0.535705    0.540715    0.875636     0.004505
PT3888   PT        0.535485    0.579167    0.840605     0.004505
AU3889   AU        0.573610    0.539684    0.839794     0.007504
PT3890   PT        0.569591    0.578042    0.875953     0.004505
AU3891   AU        0.605952    0.541588    0.876625     0.007504
AU3892   AU        0.606922    0.578621    0.839110     0.007504
PT3893   PT        0.643515    0.537547    0.839271     0.004505
PT3894   PT        0.248102    0.653382    0.840103     0.004505
AU3895   AU        0.284222    0.617240    0.839015     0.007504
PT3896   PT        0.319645    0.617310    0.879249     0.004505
AU3897   AU        0.321928    0.653955    0.839848     0.007504
AU3898   AU        0.356220    0.617544    0.841721     0.007504
AU3899   AU        0.354806    0.655830    0.878713     0.007504
PT3900   PT        0.391626    0.618918    0.877230     0.004505
PT3901   PT        0.390390    0.653479    0.840686     0.004505
PT3902   PT        0.426849    0.616471    0.841358     0.004505
PT3903   PT        0.425818    0.655686    0.875499     0.004505
PT3904   PT        0.461785    0.619309    0.877637     0.004505
PT3905   PT        0.462601    0.655235    0.840265     0.004505
AU3906   AU        0.499549    0.618602    0.837843     0.007504
PT3907   PT        0.499965    0.654058    0.877190     0.004505
AU3908   AU        0.533832    0.616269    0.875343     0.007504
AU3909   AU        0.533745    0.654334    0.839017     0.007504
AU3910   AU        0.570851    0.616768    0.840161     0.007504
AU3911   AU        0.607855    0.654154    0.836813     0.007504
PT3912   PT        0.358041    0.691220    0.839966     0.004505
PT3913   PT        0.392530    0.730527    0.840185     0.004505
AU3914   AU        0.427963    0.693281    0.838604     0.007504
AU3915   AU        0.463662    0.731744    0.838795     0.007504
AU3916   AU        0.496899    0.692642    0.839252     0.007504
PT3917   PT        0.392601    0.425843    0.914697     0.004505
PT3918   PT        0.427387    0.388904    0.915731     0.004505
PT3919   PT        0.463890    0.424688    0.915415     0.004505
PT3920   PT        0.358790    0.461418    0.915787     0.004505
PT3921   PT        0.393726    0.500393    0.915005     0.004505
PT3922   PT        0.428388    0.461530    0.913440     0.004505
PT3923   PT        0.463725    0.499439    0.915885     0.004505
PT3924   PT        0.497767    0.463136    0.914846     0.004505
PT3925   PT        0.429808    0.541106    0.916101     0.004505
