data_00001
_audit_creation_method   'DISCUS'

_data_chemical_name_common 'Au.cell: Pearson85'

_cell_length_a             57.1942
_cell_length_b             57.1942
_cell_length_c             57.1942
_cell_angle_alpha     90.0000
_cell_angle_beta      90.0000
_cell_angle_gamma     90.0000

_symmetry_space_group_name_H-M   'P1              '

loop_
_atom_site_label
_atom_site_symbol
_atom_site_fract_x
_atom_site_fract_y
_atom_site_fract_z
_atom_site_u_iso_or_equiv
CU1   CU        0.468645    0.291118    0.068143     0.006663
CU2   CU        0.301258    0.342792    0.064753     0.006663
AG3   AG        0.341725    0.315714    0.073054     0.008887
CU4   CU        0.378883    0.326560    0.043400     0.006663
CU5   CU        0.427659    0.322222    0.056311     0.006663
CU6   CU        0.444946    0.328508    0.061217     0.006663
CU7   CU        0.497476    0.300212    0.051935     0.006663
CU8   CU        0.531915    0.336023    0.057162     0.006663
CU9   CU        0.561265    0.291753    0.050598     0.006663
CU10   CU        0.577225    0.307795    0.060489     0.006663
CU11   CU        0.299680    0.388365    0.082909     0.006663
CU12   CU        0.350992    0.358568    0.056637     0.006663
CU13   CU        0.414173    0.409478    0.046595     0.006663
CU14   CU        0.439293    0.370512    0.042277     0.006663
CU15   CU        0.417460    0.381880    0.000714     0.006663
CU16   CU        0.441254    0.388794    0.026801     0.006663
CU17   CU        0.475572    0.404273    0.064024     0.006663
CU18   CU        0.481758    0.376427    0.051673     0.006663
CU19   CU        0.485234    0.396813    0.041650     0.006663
CU20   CU        0.533688    0.409751    0.060817     0.006663
CU21   CU        0.550672    0.383565    0.061206     0.006663
CU22   CU        0.587414    0.411467    0.074389     0.006663
CU23   CU        0.285407    0.440292    0.092053     0.006663
AG24   AG        0.310337    0.482354    0.083184     0.008887
CU25   CU        0.357873    0.435468    0.061317     0.006663
CU26   CU        0.359516    0.457773    0.022496     0.006663
CU27   CU        0.378988    0.478386    0.073667     0.006663
AG28   AG        0.403273    0.442211    0.081355     0.008887
CU29   CU        0.418430    0.525131    0.018933     0.006663
CU30   CU        0.433302    0.436793    0.039768     0.006663
CU31   CU        0.457519    0.479746    0.043366     0.006663
CU32   CU        0.499298    0.438047    0.047766     0.006663
CU33   CU        0.515904    0.496664    0.017107     0.006663
CU34   CU        0.485990    0.444168    0.033621     0.006663
CU35   CU        0.521566    0.475536    0.055952     0.006663
CU36   CU        0.538705    0.424572    0.069908     0.006663
CU37   CU        0.592248    0.481029    0.056626     0.006663
CU38   CU        0.622507    0.424911    0.066263     0.006663
CU39   CU        0.315628    0.554283    0.076799     0.006663
AG40   AG        0.348758    0.516638    0.076065     0.008887
CU41   CU        0.378905    0.554994    0.076733     0.006663
CU42   CU        0.448681    0.506388    0.061050     0.006663
CU43   CU        0.473089    0.470047    0.036679     0.006663
AG44   AG        0.465503    0.550514    0.078378     0.008887
AG45   AG        0.493704    0.519649    0.050032     0.008887
AG46   AG        0.510875    0.558156    0.079015     0.008887
CU47   CU        0.568574    0.551985    0.053378     0.006663
CU48   CU        0.602940    0.557455    0.061387     0.006663
CU49   CU        0.383215    0.599686    0.054662     0.006663
CU50   CU        0.419751    0.572910    0.078969     0.006663
CU51   CU        0.447839    0.602157    0.096980     0.006663
CU52   CU        0.461846    0.581084    0.048526     0.006663
CU53   CU        0.581410    0.603221    0.058451     0.006663
CU54   CU        0.293042    0.216555    0.106292     0.006663
CU55   CU        0.362519    0.191574    0.140615     0.006663
CU56   CU        0.419936    0.183528    0.135680     0.006663
CU57   CU        0.459504    0.208778    0.153424     0.006663
CU58   CU        0.519690    0.164161    0.163391     0.006663
CU59   CU        0.501878    0.194573    0.139396     0.006663
CU60   CU        0.597212    0.212675    0.150743     0.006663
CU61   CU        0.238166    0.269919    0.138455     0.006663
AG62   AG        0.285592    0.259262    0.129008     0.008887
AG63   AG        0.325112    0.251106    0.115343     0.008887
CU64   CU        0.334432    0.212986    0.084258     0.006663
CU65   CU        0.351042    0.278448    0.098073     0.006663
CU66   CU        0.365849    0.232518    0.106495     0.006663
AG67   AG        0.400115    0.262061    0.119714     0.008887
AG68   AG        0.397618    0.223821    0.150263     0.008887
CU69   CU        0.426244    0.280444    0.089140     0.006663
CU70   CU        0.459392    0.246118    0.090797     0.006663
CU71   CU        0.444489    0.276053    0.129899     0.006663
AG72   AG        0.483839    0.242526    0.130377     0.008887
CU73   CU        0.508297    0.264173    0.085525     0.006663
CU74   CU        0.520081    0.239515    0.095095     0.006663
AG75   AG        0.524021    0.268526    0.130485     0.008887
AG76   AG        0.561072    0.235296    0.132110     0.008887
AG77   AG        0.556555    0.272798    0.097198     0.008887
CU78   CU        0.603795    0.264744    0.125625     0.006663
CU79   CU        0.639101    0.230086    0.135366     0.006663
CU80   CU        0.678207    0.261090    0.135465     0.006663
CU81   CU        0.210942    0.314765    0.134950     0.006663
AG82   AG        0.250535    0.337248    0.136470     0.008887
CU83   CU        0.304122    0.289695    0.099930     0.006663
AG84   AG        0.278170    0.346772    0.103684     0.008887
CU85   CU        0.304643    0.301419    0.102808     0.006663
CU86   CU        0.303374    0.331125    0.139968     0.006663
AG87   AG        0.348887    0.302993    0.116534     0.008887
AG88   AG        0.369713    0.344244    0.093752     0.008887
CU89   CU        0.373374    0.280035    0.083835     0.006663
AG90   AG        0.383888    0.334177    0.137022     0.008887
AG91   AG        0.428743    0.306050    0.134315     0.008887
AG92   AG        0.415906    0.345295    0.098019     0.008887
AG93   AG        0.450963    0.316354    0.096633     0.008887
CU94   CU        0.465564    0.339639    0.132695     0.006663
AG95   AG        0.485048    0.290483    0.120395     0.008887
AG96   AG        0.489998    0.337454    0.086699     0.008887
AG97   AG        0.525641    0.305571    0.098532     0.008887
AG98   AG        0.535802    0.352361    0.099883     0.008887
AG99   AG        0.562060    0.285385    0.143492     0.008887
CU100   CU        0.531553    0.312965    0.076803     0.006663
CU101   CU        0.601308    0.274788    0.084644     0.006663
AG102   AG        0.599908    0.325673    0.137017     0.008887
AG103   AG        0.642998    0.298629    0.130174     0.008887
CU104   CU        0.636535    0.338723    0.099886     0.006663
CU105   CU        0.682711    0.325923    0.150557     0.006663
CU106   CU        0.696056    0.300586    0.116692     0.006663
CU107   CU        0.195998    0.435885    0.125096     0.006663
CU108   CU        0.212094    0.367010    0.120858     0.006663
CU109   CU        0.257930    0.384394    0.118644     0.006663
CU110   CU        0.210073    0.387815    0.118386     0.006663
CU111   CU        0.285138    0.361668    0.151249     0.006663
CU112   CU        0.278620    0.422779    0.100489     0.006663
AG113   AG        0.325356    0.348512    0.098214     0.008887
CU114   CU        0.327058    0.413239    0.108980     0.006663
CU115   CU        0.348244    0.371687    0.126801     0.006663
CU116   CU        0.346582    0.394935    0.111170     0.006663
CU117   CU        0.382529    0.394146    0.080072     0.006663
AG118   AG        0.390179    0.423214    0.151200     0.008887
CU119   CU        0.460440    0.363904    0.111474     0.006663
AG120   AG        0.428880    0.403909    0.074293     0.008887
AG121   AG        0.456199    0.365801    0.093175     0.008887
AG122   AG        0.427812    0.435205    0.118802     0.008887
AG123   AG        0.499782    0.368501    0.129558     0.008887
AG124   AG        0.502465    0.429104    0.097640     0.008887
AG125   AG        0.505428    0.384516    0.088398     0.008887
AG126   AG        0.542666    0.399406    0.108670     0.008887
AG127   AG        0.549011    0.370640    0.142206     0.008887
AG128   AG        0.580620    0.410186    0.079800     0.008887
AG129   AG        0.613326    0.373768    0.082431     0.008887
AG130   AG        0.586342    0.385452    0.121662     0.008887
AG131   AG        0.625002    0.367281    0.132126     0.008887
AG132   AG        0.622212    0.413565    0.111038     0.008887
AG133   AG        0.656989    0.380017    0.096388     0.008887
CU134   CU        0.660857    0.401844    0.140269     0.006663
CU135   CU        0.696777    0.351800    0.112322     0.006663
CU136   CU        0.749508    0.422840    0.110632     0.006663
CU137   CU        0.171449    0.478821    0.132430     0.006663
AG138   AG        0.222552    0.476386    0.115752     0.008887
CU139   CU        0.240401    0.445469    0.114088     0.006663
CU140   CU        0.219290    0.503713    0.130456     0.006663
CU141   CU        0.284794    0.438463    0.146034     0.006663
AG142   AG        0.272850    0.483898    0.112487     0.008887
CU143   CU        0.330340    0.433622    0.097873     0.006663
AG144   AG        0.312650    0.465171    0.122567     0.008887
AG145   AG        0.351713    0.443789    0.138864     0.008887
AG146   AG        0.356719    0.471384    0.097960     0.008887
CU147   CU        0.387041    0.463433    0.115385     0.006663
AG148   AG        0.392288    0.468132    0.123727     0.008887
AG149   AG        0.431722    0.445681    0.126250     0.008887
AG150   AG        0.425459    0.482018    0.096778     0.008887
AG151   AG        0.456043    0.448904    0.079339     0.008887
CU152   CU        0.469392    0.482291    0.118289     0.006663
AG153   AG        0.476429    0.439564    0.136606     0.008887
AG154   AG        0.513433    0.469610    0.116891     0.008887
AG155   AG        0.545361    0.443513    0.086869     0.008887
AG156   AG        0.546400    0.507590    0.126249     0.008887
AG157   AG        0.555173    0.457631    0.134181     0.008887
AG158   AG        0.561164    0.484676    0.092734     0.008887
AG159   AG        0.593618    0.455714    0.094870     0.008887
AG160   AG        0.592715    0.483888    0.132123     0.008887
AG161   AG        0.633661    0.462069    0.128554     0.008887
AG162   AG        0.663331    0.483560    0.097056     0.008887
CU163   CU        0.663094    0.432350    0.094603     0.006663
AG164   AG        0.674489    0.487267    0.145308     0.008887
CU165   CU        0.735755    0.457941    0.135708     0.006663
CU166   CU        0.756717    0.469005    0.138132     0.006663
AG167   AG        0.207510    0.515111    0.134459     0.008887
AG168   AG        0.234637    0.512092    0.089154     0.008887
AG169   AG        0.233184    0.553459    0.117323     0.008887
AG170   AG        0.262370    0.524181    0.130127     0.008887
CU171   CU        0.275289    0.535815    0.104162     0.006663
AG172   AG        0.317913    0.515875    0.111606     0.008887
AG173   AG        0.307289    0.540694    0.152462     0.008887
AG174   AG        0.358426    0.494902    0.139009     0.008887
CU175   CU        0.366100    0.558258    0.083953     0.006663
AG176   AG        0.382114    0.513391    0.106330     0.008887
AG177   AG        0.399979    0.551393    0.122540     0.008887
CU178   CU        0.442610    0.520686    0.134596     0.006663
AG179   AG        0.428707    0.528306    0.096595     0.008887
CU180   CU        0.456453    0.481208    0.114458     0.006663
AG181   AG        0.449280    0.563942    0.126158     0.008887
AG182   AG        0.487634    0.543798    0.123071     0.008887
CU183   CU        0.489556    0.584608    0.094581     0.006663
AG184   AG        0.513278    0.508003    0.093190     0.008887
AG185   AG        0.534374    0.577713    0.118624     0.008887
CU186   CU        0.591758    0.529690    0.128068     0.006663
CU187   CU        0.579465    0.572370    0.099688     0.006663
CU188   CU        0.614547    0.496206    0.092593     0.006663
CU189   CU        0.609473    0.567786    0.147419     0.006663
AG190   AG        0.635505    0.512717    0.128147     0.008887
AG191   AG        0.624242    0.551607    0.106058     0.008887
AG192   AG        0.673384    0.526342    0.110504     0.008887
CU193   CU        0.663027    0.537101    0.158329     0.006663
AG194   AG        0.707279    0.534811    0.139228     0.008887
CU195   CU        0.252218    0.597446    0.110051     0.006663
CU196   CU        0.247476    0.638788    0.143950     0.006663
AG197   AG        0.279008    0.569424    0.135046     0.008887
CU198   CU        0.334748    0.592212    0.093843     0.006663
CU199   CU        0.323248    0.597105    0.139930     0.006663
CU200   CU        0.326989    0.587628    0.144361     0.006663
AG201   AG        0.348070    0.633001    0.110457     0.008887
AG202   AG        0.379640    0.595195    0.105219     0.008887
AG203   AG        0.383644    0.627067    0.148403     0.008887
AG204   AG        0.411967    0.593454    0.137870     0.008887
CU205   CU        0.442814    0.634640    0.132492     0.006663
CU206   CU        0.480040    0.591243    0.095716     0.006663
CU207   CU        0.424347    0.650220    0.100472     0.006663
AG208   AG        0.495949    0.592496    0.144714     0.008887
AG209   AG        0.484409    0.631693    0.121027     0.008887
CU210   CU        0.529547    0.591158    0.109045     0.006663
AG211   AG        0.526971    0.628974    0.140418     0.008887
CU212   CU        0.563646    0.592913    0.145444     0.006663
AG213   AG        0.565411    0.620627    0.109439     0.008887
CU214   CU        0.585913    0.581465    0.104153     0.006663
CU215   CU        0.606295    0.634151    0.125651     0.006663
CU216   CU        0.611600    0.580649    0.140315     0.006663
CU217   CU        0.656471    0.629097    0.127936     0.006663
CU218   CU        0.716617    0.584718    0.135910     0.006663
CU219   CU        0.286792    0.678452    0.111162     0.006663
CU220   CU        0.326536    0.682718    0.157711     0.006663
AG221   AG        0.368939    0.665912    0.134255     0.008887
CU222   CU        0.331440    0.684381    0.105398     0.006663
CU223   CU        0.369301    0.709560    0.108877     0.006663
AG224   AG        0.417685    0.664742    0.143402     0.008887
CU225   CU        0.470223    0.640988    0.090035     0.006663
AG226   AG        0.462839    0.678755    0.127354     0.008887
CU227   CU        0.503120    0.675091    0.107100     0.006663
CU228   CU        0.517362    0.619166    0.092554     0.006663
CU229   CU        0.532790    0.707695    0.132947     0.006663
CU230   CU        0.564807    0.663108    0.126447     0.006663
CU231   CU        0.598615    0.697119    0.122962     0.006663
CU232   CU        0.637091    0.673873    0.121967     0.006663
CU233   CU        0.420544    0.754627    0.119344     0.006663
CU234   CU        0.510325    0.746177    0.141764     0.006663
CU235   CU        0.331760    0.121639    0.184547     0.006663
CU236   CU        0.381166    0.116140    0.203695     0.006663
CU237   CU        0.433160    0.120928    0.164042     0.006663
AG238   AG        0.434334    0.124562    0.210516     0.008887
AG239   AG        0.476416    0.135040    0.186009     0.008887
CU240   CU        0.549783    0.126746    0.216032     0.006663
CU241   CU        0.580259    0.095009    0.238180     0.006663
CU242   CU        0.238769    0.210426    0.208261     0.006663
CU243   CU        0.280964    0.171775    0.187039     0.006663
CU244   CU        0.270264    0.168260    0.173217     0.006663
CU245   CU        0.326557    0.162924    0.169856     0.006663
AG246   AG        0.322775    0.224328    0.203651     0.008887
CU247   CU        0.318445    0.160171    0.217644     0.006663
CU248   CU        0.321091    0.209654    0.153695     0.006663
CU249   CU        0.391804    0.177886    0.173115     0.006663
AG250   AG        0.393771    0.184763    0.223923     0.008887
CU251   CU        0.413397    0.148748    0.205054     0.006663
AG252   AG        0.400681    0.190775    0.178044     0.008887
AG253   AG        0.442153    0.165798    0.176716     0.008887
AG254   AG        0.484439    0.183414    0.194134     0.008887
AG255   AG        0.498079    0.138752    0.224263     0.008887
CU256   CU        0.485742    0.204849    0.153754     0.006663
CU257   CU        0.514840    0.157426    0.180272     0.006663
AG258   AG        0.520228    0.207051    0.192634     0.008887
AG259   AG        0.553314    0.166226    0.198334     0.008887
AG260   AG        0.560080    0.199886    0.170675     0.008887
CU261   CU        0.612053    0.146614    0.152899     0.006663
AG262   AG        0.597537    0.190924    0.196566     0.008887
CU263   CU        0.623206    0.156705    0.198792     0.006663
AG264   AG        0.637095    0.191683    0.166175     0.008887
CU265   CU        0.675403    0.192935    0.199704     0.006663
CU266   CU        0.154818    0.292657    0.196026     0.006663
CU267   CU        0.203395    0.221856    0.179034     0.006663
CU268   CU        0.203445    0.294365    0.207296     0.006663
CU269   CU        0.251559    0.225916    0.167744     0.006663
AG270   AG        0.237342    0.305174    0.172093     0.008887
AG271   AG        0.275975    0.239031    0.205136     0.008887
AG272   AG        0.274379    0.271383    0.173504     0.008887
AG273   AG        0.308542    0.242024    0.165180     0.008887
AG274   AG        0.346385    0.263489    0.183010     0.008887
AG275   AG        0.361505    0.218795    0.179418     0.008887
CU276   CU        0.325409    0.287137    0.145742     0.006663
CU277   CU        0.371145    0.219945    0.201819     0.006663
AG278   AG        0.388764    0.279210    0.192583     0.008887
AG279   AG        0.402493    0.232941    0.202833     0.008887
CU280   CU        0.433397    0.250194    0.173025     0.006663
CU281   CU        0.442131    0.217527    0.173977     0.006663
AG282   AG        0.438917    0.261001    0.198180     0.008887
AG283   AG        0.478443    0.233819    0.189504     0.008887
CU284   CU        0.478452    0.258902    0.172191     0.006663
AG285   AG        0.519516    0.228469    0.164749     0.008887
AG286   AG        0.518972    0.259605    0.197095     0.008887
CU287   CU        0.598167    0.200538    0.201211     0.006663
CU288   CU        0.558813    0.272793    0.165821     0.006663
CU289   CU        0.596602    0.226219    0.162136     0.006663
AG290   AG        0.599945    0.291109    0.216581     0.008887
AG291   AG        0.646643    0.228645    0.221478     0.008887
CU292   CU        0.669770    0.228777    0.177158     0.006663
CU293   CU        0.660607    0.238306    0.174355     0.006663
AG294   AG        0.669396    0.268443    0.215083     0.008887
CU295   CU        0.698036    0.235208    0.216492     0.006663
CU296   CU        0.701932    0.270655    0.177013     0.006663
CU297   CU        0.736116    0.271062    0.204202     0.006663
CU298   CU        0.125434    0.336619    0.192149     0.006663
CU299   CU        0.161375    0.324342    0.156880     0.006663
CU300   CU        0.202037    0.340910    0.216011     0.006663
CU301   CU        0.203303    0.315582    0.199551     0.006663
AG302   AG        0.212765    0.345310    0.168544     0.008887
CU303   CU        0.250047    0.308949    0.173124     0.006663
AG304   AG        0.246799    0.340790    0.203964     0.008887
CU305   CU        0.286678    0.311365    0.199797     0.006663
CU306   CU        0.312381    0.328870    0.183858     0.006663
AG307   AG        0.313982    0.288456    0.149135     0.008887
AG308   AG        0.325147    0.334253    0.192620     0.008887
CU309   CU        0.369323    0.335826    0.210243     0.006663
AG310   AG        0.331491    0.334782    0.144539     0.008887
AG311   AG        0.358604    0.303925    0.164031     0.008887
CU312   CU        0.372476    0.343948    0.234047     0.006663
CU313   CU        0.433249    0.302826    0.207829     0.006663
CU314   CU        0.406819    0.328520    0.176641     0.006663
AG315   AG        0.465202    0.309018    0.166377     0.008887
AG316   AG        0.447862    0.330144    0.208548     0.008887
AG317   AG        0.480362    0.289689    0.204633     0.008887
CU318   CU        0.506772    0.323462    0.135439     0.006663
CU319   CU        0.519233    0.310035    0.153938     0.006663
CU320   CU        0.532009    0.359696    0.212380     0.006663
CU321   CU        0.560389    0.287199    0.194208     0.006663
AG322   AG        0.565365    0.324124    0.169109     0.008887
AG323   AG        0.605499    0.291665    0.165721     0.008887
AG324   AG        0.612406    0.324883    0.190569     0.008887
AG325   AG        0.645303    0.304807    0.212237     0.008887
AG326   AG        0.641016    0.329668    0.167754     0.008887
AG327   AG        0.663162    0.290392    0.169895     0.008887
CU328   CU        0.685968    0.315058    0.201981     0.006663
CU329   CU        0.699230    0.307953    0.206593     0.006663
CU330   CU        0.675633    0.331754    0.195477     0.006663
CU331   CU        0.775597    0.318667    0.188159     0.006663
CU332   CU        0.760998    0.318283    0.190394     0.006663
AG333   AG        0.782392    0.281939    0.216776     0.008887
CU334   CU        0.122827    0.379364    0.195639     0.006663
CU335   CU        0.081719    0.441916    0.179287     0.006663
AG336   AG        0.169406    0.366612    0.184130     0.008887
AG337   AG        0.181868    0.405781    0.213290     0.008887
AG338   AG        0.211259    0.372654    0.203442     0.008887
AG339   AG        0.203970    0.397925    0.162461     0.008887
CU340   CU        0.241699    0.382988    0.162657     0.006663
AG341   AG        0.239605    0.429429    0.181038     0.008887
AG342   AG        0.290709    0.366236    0.208152     0.008887
AG343   AG        0.282528    0.402055    0.172141     0.008887
AG344   AG        0.311153    0.372926    0.172212     0.008887
AG345   AG        0.320323    0.411591    0.201340     0.008887
AG346   AG        0.348030    0.373920    0.197253     0.008887
AG347   AG        0.342341    0.406732    0.160570     0.008887
AG348   AG        0.383404    0.373832    0.160090     0.008887
CU349   CU        0.367286    0.385876    0.199608     0.006663
AG350   AG        0.411433    0.364873    0.212193     0.008887
AG351   AG        0.434727    0.419510    0.161968     0.008887
CU352   CU        0.478232    0.394567    0.163106     0.006663
AG353   AG        0.465853    0.423339    0.199633     0.008887
AG354   AG        0.490625    0.380783    0.208190     0.008887
AG355   AG        0.496488    0.404739    0.166783     0.008887
AG356   AG        0.512449    0.356978    0.170567     0.008887
AG357   AG        0.518417    0.426365    0.202071     0.008887
CU358   CU        0.578264    0.360293    0.220662     0.006663
CU359   CU        0.547491    0.412451    0.160035     0.006663
AG360   AG        0.598538    0.360794    0.167412     0.008887
CU361   CU        0.576029    0.405689    0.198390     0.006663
CU362   CU        0.643999    0.385542    0.178774     0.006663
CU363   CU        0.650168    0.371810    0.175774     0.006663
CU364   CU        0.665088    0.386930    0.130489     0.006663
CU365   CU        0.667539    0.408161    0.193557     0.006663
CU366   CU        0.707084    0.399380    0.219901     0.006663
CU367   CU        0.685263    0.407857    0.169629     0.006663
CU368   CU        0.765845    0.389938    0.151241     0.006663
AG369   AG        0.749643    0.410154    0.198378     0.008887
CU370   CU        0.779616    0.367582    0.197099     0.006663
CU371   CU        0.778372    0.420872    0.191378     0.006663
CU372   CU        0.116482    0.448687    0.215355     0.006663
CU373   CU        0.118421    0.477784    0.190399     0.006663
CU374   CU        0.170259    0.446407    0.171716     0.006663
AG375   AG        0.170695    0.486627    0.205051     0.008887
AG376   AG        0.201623    0.448459    0.204803     0.008887
AG377   AG        0.213401    0.466783    0.158019     0.008887
AG378   AG        0.272439    0.446481    0.147404     0.008887
CU379   CU        0.262326    0.498963    0.197914     0.006663
AG380   AG        0.281119    0.448061    0.195640     0.008887
AG381   AG        0.256102    0.472181    0.154282     0.008887
AG382   AG        0.319820    0.453256    0.173142     0.008887
CU383   CU        0.337550    0.468999    0.220820     0.006663
AG384   AG        0.363234    0.438813    0.193784     0.008887
CU385   CU        0.366216    0.460491    0.180954     0.006663
AG386   AG        0.408225    0.462421    0.170763     0.008887
AG387   AG        0.389939    0.477671    0.214792     0.008887
AG388   AG        0.422877    0.442861    0.214966     0.008887
CU389   CU        0.398875    0.494319    0.165060     0.006663
CU390   CU        0.448964    0.434726    0.170268     0.006663
CU391   CU        0.441748    0.482409    0.211881     0.006663
CU392   CU        0.492650    0.417776    0.239988     0.006663
AG393   AG        0.488431    0.456330    0.175654     0.008887
AG394   AG        0.516457    0.451188    0.164469     0.008887
AG395   AG        0.523419    0.474615    0.206561     0.008887
CU396   CU        0.580254    0.424163    0.207605     0.006663
CU397   CU        0.554054    0.488686    0.169633     0.006663
AG398   AG        0.594765    0.459682    0.171019     0.008887
CU399   CU        0.599629    0.498068    0.201384     0.006663
CU400   CU        0.624179    0.423539    0.209381     0.006663
AG401   AG        0.628140    0.497054    0.167811     0.008887
CU402   CU        0.672668    0.423015    0.183770     0.006663
CU403   CU        0.663847    0.498744    0.207345     0.006663
CU404   CU        0.709355    0.430746    0.206748     0.006663
CU405   CU        0.709953    0.486012    0.159453     0.006663
CU406   CU        0.745237    0.458969    0.185781     0.006663
CU407   CU        0.741621    0.498016    0.206016     0.006663
CU408   CU        0.736753    0.436841    0.242653     0.006663
CU409   CU        0.807352    0.468626    0.137154     0.006663
AG410   AG        0.134855    0.525583    0.204847     0.008887
CU411   CU        0.172735    0.527607    0.169894     0.006663
AG412   AG        0.181647    0.530544    0.222825     0.008887
AG413   AG        0.213562    0.509362    0.187366     0.008887
CU414   CU        0.207477    0.552566    0.159627     0.006663
AG415   AG        0.234986    0.510692    0.170730     0.008887
CU416   CU        0.218875    0.551433    0.162518     0.006663
AG417   AG        0.260489    0.513022    0.208325     0.008887
AG418   AG        0.267184    0.545520    0.176444     0.008887
CU419   CU        0.300132    0.532045    0.200809     0.006663
CU420   CU        0.311655    0.522824    0.201318     0.006663
CU421   CU        0.342168    0.553135    0.222225     0.006663
CU422   CU        0.333403    0.529585    0.161725     0.006663
AG423   AG        0.404318    0.508049    0.151758     0.008887
CU424   CU        0.396039    0.520825    0.223098     0.006663
AG425   AG        0.427679    0.505977    0.195586     0.008887
AG426   AG        0.419288    0.554879    0.167429     0.008887
CU427   CU        0.446533    0.521288    0.148174     0.006663
CU428   CU        0.460480    0.551705    0.204902     0.006663
AG429   AG        0.478795    0.502023    0.204073     0.008887
CU430   CU        0.497599    0.554909    0.168774     0.006663
CU431   CU        0.539755    0.505813    0.136913     0.006663
AG432   AG        0.533222    0.561824    0.210505     0.008887
AG433   AG        0.557314    0.515324    0.216318     0.008887
AG434   AG        0.569173    0.547391    0.143916     0.008887
AG435   AG        0.576814    0.508024    0.166766     0.008887
AG436   AG        0.581831    0.556105    0.189004     0.008887
CU437   CU        0.631139    0.550903    0.183500     0.006663
AG438   AG        0.632322    0.560696    0.188504     0.008887
CU439   CU        0.667274    0.525028    0.164249     0.006663
AG440   AG        0.673203    0.544714    0.203308     0.008887
AG441   AG        0.703818    0.509252    0.181623     0.008887
CU442   CU        0.708013    0.542417    0.148823     0.006663
AG443   AG        0.746101    0.511341    0.162595     0.008887
CU444   CU        0.747447    0.571368    0.210424     0.006663
CU445   CU        0.785911    0.501638    0.181941     0.006663
CU446   CU        0.138536    0.605527    0.205304     0.006663
CU447   CU        0.190191    0.596105    0.157462     0.006663
CU448   CU        0.218139    0.627462    0.185690     0.006663
AG449   AG        0.176616    0.573922    0.197778     0.008887
CU450   CU        0.222591    0.600566    0.170747     0.006663
AG451   AG        0.243565    0.589595    0.156874     0.008887
CU452   CU        0.238378    0.626859    0.186977     0.006663
AG453   AG        0.261633    0.583887    0.199024     0.008887
CU454   CU        0.263728    0.625786    0.189072     0.006663
AG455   AG        0.304800    0.570302    0.177784     0.008887
AG456   AG        0.305127    0.616303    0.199732     0.008887
AG457   AG        0.343704    0.588394    0.194257     0.008887
AG458   AG        0.337400    0.634434    0.162830     0.008887
AG459   AG        0.373769    0.578552    0.154706     0.008887
AG460   AG        0.380359    0.614450    0.192074     0.008887
CU461   CU        0.422768    0.593250    0.214049     0.006663
AG462   AG        0.429245    0.623614    0.173932     0.008887
AG463   AG        0.457490    0.588328    0.172086     0.008887
AG464   AG        0.464838    0.624333    0.207847     0.008887
AG465   AG        0.502859    0.598016    0.195257     0.008887
AG466   AG        0.482221    0.633543    0.168662     0.008887
AG467   AG        0.540872    0.581945    0.167135     0.008887
CU468   CU        0.522599    0.615512    0.184827     0.006663
AG469   AG        0.562810    0.595625    0.204750     0.008887
AG470   AG        0.570465    0.624472    0.161359     0.008887
AG471   AG        0.601949    0.597199    0.178678     0.008887
AG472   AG        0.593861    0.633769    0.202886     0.008887
CU473   CU        0.634303    0.567982    0.183931     0.006663
CU474   CU        0.640500    0.624533    0.178253     0.006663
AG475   AG        0.657906    0.559647    0.141664     0.008887
AG476   AG        0.674227    0.639110    0.209158     0.008887
CU477   CU        0.699002    0.607307    0.209761     0.006663
AG478   AG        0.687047    0.612046    0.168183     0.008887
CU479   CU        0.748695    0.556939    0.155419     0.006663
AG480   AG        0.716448    0.609756    0.209703     0.008887
CU481   CU        0.791428    0.601279    0.198911     0.006663
CU482   CU        0.198416    0.664513    0.193356     0.006663
AG483   AG        0.240596    0.673533    0.187856     0.008887
CU484   CU        0.245880    0.704294    0.218959     0.006663
AG485   AG        0.270883    0.647589    0.208340     0.008887
CU486   CU        0.285377    0.665835    0.161676     0.006663
CU487   CU        0.333097    0.686799    0.171508     0.006663
AG488   AG        0.289180    0.695835    0.195304     0.008887
CU489   CU        0.349518    0.636537    0.214365     0.006663
AG490   AG        0.373419    0.707158    0.157688     0.008887
CU491   CU        0.386597    0.660549    0.185231     0.006663
AG492   AG        0.407018    0.704066    0.190790     0.008887
CU493   CU        0.405427    0.657832    0.186467     0.006663
CU494   CU        0.450635    0.689388    0.175282     0.006663
AG495   AG        0.451476    0.666953    0.174723     0.008887
AG496   AG        0.451193    0.693241    0.218868     0.008887
AG497   AG        0.490979    0.669244    0.200783     0.008887
CU498   CU        0.494163    0.696758    0.159735     0.006663
AG499   AG        0.507868    0.668994    0.154798     0.008887
AG500   AG        0.526110    0.694805    0.199392     0.008887
AG501   AG        0.571404    0.672196    0.202194     0.008887
AG502   AG        0.558066    0.687115    0.163022     0.008887
AG503   AG        0.602453    0.665002    0.163244     0.008887
AG504   AG        0.605759    0.699092    0.200397     0.008887
AG505   AG        0.633271    0.661856    0.200861     0.008887
AG506   AG        0.640769    0.696700    0.167780     0.008887
AG507   AG        0.670020    0.658731    0.163088     0.008887
AG508   AG        0.682237    0.684272    0.200508     0.008887
AG509   AG        0.716324    0.650405    0.182665     0.008887
CU510   CU        0.275022    0.713857    0.187134     0.006663
CU511   CU        0.324260    0.730637    0.174629     0.006663
CU512   CU        0.307992    0.770761    0.157974     0.006663
CU513   CU        0.377842    0.717019    0.230111     0.006663
CU514   CU        0.365381    0.737415    0.196514     0.006663
CU515   CU        0.380686    0.748105    0.190265     0.006663
CU516   CU        0.426894    0.733777    0.216262     0.006663
CU517   CU        0.415522    0.744485    0.163672     0.006663
CU518   CU        0.448261    0.713305    0.178262     0.006663
CU519   CU        0.465649    0.770176    0.207323     0.006663
CU520   CU        0.502661    0.739509    0.205614     0.006663
CU521   CU        0.461249    0.761663    0.153938     0.006663
CU522   CU        0.517614    0.710410    0.177047     0.006663
CU523   CU        0.530964    0.821260    0.199568     0.006663
AG524   AG        0.563518    0.720613    0.200475     0.008887
CU525   CU        0.622199    0.735702    0.183351     0.006663
CU526   CU        0.590058    0.766438    0.199807     0.006663
CU527   CU        0.648347    0.718797    0.213616     0.006663
CU528   CU        0.435691    0.027428    0.264732     0.006663
CU529   CU        0.239210    0.117194    0.276437     0.006663
CU530   CU        0.284960    0.122916    0.202199     0.006663
CU531   CU        0.314481    0.181727    0.267883     0.006663
CU532   CU        0.348853    0.081489    0.279840     0.006663
CU533   CU        0.335760    0.112864    0.228294     0.006663
CU534   CU        0.385004    0.035732    0.204840     0.006663
AG535   AG        0.376679    0.117908    0.269720     0.008887
CU536   CU        0.424591    0.100563    0.277660     0.006663
AG537   AG        0.411633    0.144146    0.249442     0.008887
CU538   CU        0.455106    0.074322    0.223668     0.006663
CU539   CU        0.467635    0.110645    0.286335     0.006663
CU540   CU        0.468704    0.093879    0.272084     0.006663
CU541   CU        0.475823    0.117385    0.234169     0.006663
CU542   CU        0.500328    0.101418    0.218261     0.006663
AG543   AG        0.510467    0.121598    0.266317     0.008887
CU544   CU        0.587263    0.091243    0.290780     0.006663
AG545   AG        0.545874    0.130911    0.232034     0.008887
AG546   AG        0.595159    0.139513    0.286958     0.008887
CU547   CU        0.616734    0.122528    0.254374     0.006663
CU548   CU        0.647979    0.135729    0.287129     0.006663
CU549   CU        0.173369    0.183404    0.269243     0.006663
CU550   CU        0.217036    0.157995    0.284968     0.006663
CU551   CU        0.213015    0.203005    0.252744     0.006663
CU552   CU        0.242307    0.141795    0.203334     0.006663
AG553   AG        0.261523    0.195206    0.272938     0.008887
CU554   CU        0.242685    0.160045    0.251417     0.006663
AG555   AG        0.290219    0.202026    0.232131     0.008887
CU556   CU        0.310620    0.155974    0.223519     0.006663
AG557   AG        0.311144    0.196996    0.281074     0.008887
CU558   CU        0.337260    0.153399    0.269892     0.006663
AG559   AG        0.344611    0.196826    0.240074     0.008887
AG560   AG        0.360488    0.149763    0.235768     0.008887
AG561   AG        0.379771    0.183194    0.276044     0.008887
AG562   AG        0.429162    0.145309    0.294041     0.008887
AG563   AG        0.394435    0.223357    0.249557     0.008887
AG564   AG        0.452504    0.162497    0.225462     0.008887
CU565   CU        0.453584    0.182530    0.269120     0.006663
AG566   AG        0.501249    0.165761    0.266729     0.008887
AG567   AG        0.480551    0.206628    0.233945     0.008887
AG568   AG        0.522969    0.176234    0.228213     0.008887
AG569   AG        0.531713    0.198424    0.272376     0.008887
AG570   AG        0.546176    0.157145    0.277355     0.008887
AG571   AG        0.557383    0.201818    0.226682     0.008887
AG572   AG        0.585965    0.157174    0.230426     0.008887
CU573   CU        0.614496    0.188217    0.297217     0.006663
CU574   CU        0.640561    0.149907    0.282483     0.006663
AG575   AG        0.632263    0.187274    0.230984     0.008887
CU576   CU        0.626398    0.135283    0.239971     0.006663
AG577   AG        0.654333    0.199586    0.274701     0.008887
CU578   CU        0.722519    0.172733    0.276849     0.006663
CU579   CU        0.679788    0.198719    0.238487     0.006663
AG580   AG        0.746171    0.216511    0.274454     0.008887
CU581   CU        0.112819    0.266888    0.266435     0.006663
CU582   CU        0.135879    0.266630    0.267365     0.006663
CU583   CU        0.165463    0.275084    0.231804     0.006663
CU584   CU        0.156492    0.262811    0.274585     0.006663
CU585   CU        0.229211    0.213357    0.252458     0.006663
CU586   CU        0.165057    0.253978    0.231175     0.006663
AG587   AG        0.248825    0.235786    0.247348     0.008887
AG588   AG        0.202083    0.254283    0.264888     0.008887
CU589   CU        0.286913    0.235480    0.289567     0.006663
AG590   AG        0.246573    0.273682    0.207387     0.008887
CU591   CU        0.293701    0.217632    0.242084     0.006663
CU592   CU        0.308330    0.286974    0.268280     0.006663
CU593   CU        0.349445    0.216529    0.290728     0.006663
CU594   CU        0.349556    0.285089    0.245656     0.006663
AG595   AG        0.363374    0.246218    0.224638     0.008887
CU596   CU        0.377114    0.261520    0.280344     0.006663
CU597   CU        0.411533    0.213465    0.291664     0.006663
AG598   AG        0.441270    0.240303    0.242004     0.008887
CU599   CU        0.436797    0.214036    0.227426     0.006663
AG600   AG        0.463637    0.263601    0.285889     0.008887
AG601   AG        0.494735    0.229423    0.277939     0.008887
CU602   CU        0.488678    0.258371    0.241690     0.006663
AG603   AG        0.519197    0.229505    0.232976     0.008887
AG604   AG        0.548018    0.236405    0.267961     0.008887
CU605   CU        0.560067    0.196293    0.237507     0.006663
CU606   CU        0.560971    0.257050    0.228986     0.006663
AG607   AG        0.600688    0.228512    0.229909     0.008887
AG608   AG        0.597992    0.245303    0.278826     0.008887
AG609   AG        0.635446    0.222999    0.266195     0.008887
AG610   AG        0.629542    0.269437    0.246960     0.008887
AG611   AG        0.673242    0.244201    0.259008     0.008887
AG612   AG        0.669570    0.266017    0.269100     0.008887
AG613   AG        0.711638    0.252161    0.283535     0.008887
AG614   AG        0.705153    0.280677    0.237524     0.008887
CU615   CU        0.708787    0.236627    0.234228     0.006663
AG616   AG        0.758357    0.264922    0.293916     0.008887
CU617   CU        0.786268    0.232881    0.278058     0.006663
AG618   AG        0.750320    0.259044    0.250547     0.008887
CU619   CU        0.135478    0.341423    0.295019     0.006663
CU620   CU        0.119090    0.294778    0.306071     0.006663
CU621   CU        0.145447    0.309681    0.260605     0.006663
CU622   CU        0.177915    0.310113    0.243748     0.006663
AG623   AG        0.177901    0.340507    0.280667     0.008887
CU624   CU        0.216172    0.301462    0.274293     0.006663
CU625   CU        0.199170    0.354859    0.220407     0.006663
AG626   AG        0.241383    0.319774    0.223661     0.008887
AG627   AG        0.256436    0.330371    0.268612     0.008887
AG628   AG        0.259201    0.282182    0.255983     0.008887
AG629   AG        0.288325    0.320483    0.228196     0.008887
CU630   CU        0.322455    0.321862    0.232115     0.006663
CU631   CU        0.304935    0.341151    0.272031     0.006663
CU632   CU        0.354463    0.314400    0.284897     0.006663
CU633   CU        0.355285    0.330124    0.258463     0.006663
CU634   CU        0.389175    0.302145    0.248979     0.006663
CU635   CU        0.411772    0.367207    0.266298     0.006663
CU636   CU        0.416589    0.339443    0.300969     0.006663
CU637   CU        0.420872    0.334226    0.253915     0.006663
CU638   CU        0.462462    0.300051    0.249702     0.006663
AG639   AG        0.454057    0.338902    0.273092     0.008887
AG640   AG        0.490431    0.306115    0.282099     0.008887
CU641   CU        0.519150    0.340161    0.211400     0.006663
CU642   CU        0.527636    0.298752    0.229497     0.006663
AG643   AG        0.571816    0.342354    0.267303     0.008887
CU644   CU        0.609967    0.318503    0.250602     0.006663
AG645   AG        0.568187    0.332767    0.221141     0.008887
AG646   AG        0.586248    0.293176    0.268886     0.008887
AG647   AG        0.617162    0.348806    0.289839     0.008887
AG648   AG        0.634714    0.300826    0.286269     0.008887
AG649   AG        0.612625    0.330326    0.242995     0.008887
AG650   AG        0.666615    0.310596    0.246416     0.008887
CU651   CU        0.680538    0.334835    0.290705     0.006663
AG652   AG        0.725765    0.295636    0.280068     0.008887
AG653   AG        0.711206    0.330966    0.249403     0.008887
AG654   AG        0.744200    0.306080    0.230403     0.008887
AG655   AG        0.751343    0.338396    0.265971     0.008887
AG656   AG        0.772537    0.297486    0.263680     0.008887
AG657   AG        0.787137    0.333617    0.232139     0.008887
AG658   AG        0.800307    0.335841    0.283217     0.008887
CU659   CU        0.073064    0.392392    0.183232     0.006663
AG660   AG        0.106216    0.407233    0.264566     0.008887
AG661   AG        0.143938    0.380141    0.282148     0.008887
AG662   AG        0.135194    0.405487    0.231638     0.008887
AG663   AG        0.188399    0.373785    0.249443     0.008887
AG664   AG        0.168686    0.412430    0.260197     0.008887
CU665   CU        0.217997    0.363289    0.280271     0.006663
AG666   AG        0.209186    0.417188    0.245239     0.008887
AG667   AG        0.235677    0.370793    0.238926     0.008887
CU668   CU        0.240718    0.411399    0.266559     0.006663
CU669   CU        0.267120    0.379550    0.287443     0.006663
AG670   AG        0.275928    0.402235    0.242523     0.008887
CU671   CU        0.300766    0.371225    0.218039     0.006663
CU672   CU        0.312874    0.401842    0.269346     0.006663
AG673   AG        0.362116    0.360947    0.285712     0.008887
AG674   AG        0.351592    0.409155    0.235830     0.008887
AG675   AG        0.375906    0.372526    0.238709     0.008887
CU676   CU        0.384949    0.402761    0.272911     0.006663
AG677   AG        0.432275    0.377791    0.275549     0.008887
AG678   AG        0.418089    0.402260    0.237270     0.008887
AG679   AG        0.452171    0.371138    0.234512     0.008887
CU680   CU        0.482320    0.394375    0.286880     0.006663
CU681   CU        0.499881    0.352711    0.296496     0.006663
CU682   CU        0.512033    0.401182    0.246420     0.006663
CU683   CU        0.528704    0.355853    0.237938     0.006663
AG684   AG        0.522393    0.424268    0.285155     0.008887
AG685   AG        0.551882    0.390156    0.271889     0.008887
CU686   CU        0.520034    0.409997    0.241992     0.006663
CU687   CU        0.585495    0.379004    0.244056     0.006663
CU688   CU        0.592034    0.406338    0.247910     0.006663
CU689   CU        0.630068    0.388437    0.268468     0.006663
CU690   CU        0.666945    0.390151    0.240491     0.006663
AG691   AG        0.654234    0.351829    0.214740     0.008887
CU692   CU        0.679743    0.409966    0.260456     0.006663
CU693   CU        0.696546    0.340493    0.279353     0.006663
CU694   CU        0.703503    0.415405    0.218079     0.006663
AG695   AG        0.750505    0.372911    0.235342     0.008887
CU696   CU        0.730894    0.416161    0.252968     0.006663
AG697   AG        0.791519    0.373841    0.254259     0.008887
CU698   CU        0.785584    0.410430    0.231532     0.006663
CU699   CU        0.831860    0.354117    0.249214     0.006663
AG700   AG        0.830322    0.403907    0.255771     0.008887
CU701   CU        0.068549    0.452034    0.301957     0.006663
CU702   CU        0.111423    0.439530    0.224304     0.006663
CU703   CU        0.106704    0.478985    0.273640     0.006663
AG704   AG        0.138094    0.448949    0.265709     0.008887
AG705   AG        0.134559    0.484565    0.231567     0.008887
AG706   AG        0.162895    0.442720    0.227626     0.008887
AG707   AG        0.165704    0.474614    0.268897     0.008887
AG708   AG        0.203052    0.439881    0.286729     0.008887
CU709   CU        0.177508    0.454739    0.243481     0.006663
AG710   AG        0.249322    0.444885    0.228261     0.008887
CU711   CU        0.243913    0.479632    0.276426     0.006663
AG712   AG        0.280160    0.443329    0.268541     0.008887
CU713   CU        0.289232    0.478605    0.226492     0.006663
AG714   AG        0.308142    0.438165    0.234809     0.008887
AG715   AG        0.320752    0.475883    0.267136     0.008887
AG716   AG        0.364262    0.412920    0.288893     0.008887
CU717   CU        0.345028    0.459015    0.232477     0.006663
AG718   AG        0.391148    0.445186    0.254134     0.008887
AG719   AG        0.369766    0.494438    0.260931     0.008887
AG720   AG        0.402447    0.460331    0.262436     0.008887
AG721   AG        0.421289    0.484819    0.249520     0.008887
AG722   AG        0.440444    0.442392    0.245597     0.008887
CU723   CU        0.439431    0.454948    0.261397     0.006663
AG724   AG        0.478738    0.440606    0.276838     0.008887
CU725   CU        0.513387    0.459547    0.254511     0.006663
AG726   AG        0.518537    0.454985    0.248814     0.008887
AG727   AG        0.534073    0.473590    0.293200     0.008887
AG728   AG        0.561436    0.438231    0.266936     0.008887
AG729   AG        0.553501    0.483172    0.248203     0.008887
CU730   CU        0.596236    0.463204    0.234230     0.006663
AG731   AG        0.583117    0.479546    0.284589     0.008887
CU732   CU        0.634360    0.464416    0.288714     0.006663
CU733   CU        0.673005    0.484132    0.258517     0.006663
CU734   CU        0.666965    0.441935    0.227652     0.006663
AG735   AG        0.676660    0.492639    0.281134     0.008887
AG736   AG        0.705289    0.455765    0.279309     0.008887
CU737   CU        0.710665    0.534852    0.267168     0.006663
CU738   CU        0.754547    0.449528    0.231442     0.006663
AG739   AG        0.754075    0.467127    0.279051     0.008887
CU740   CU        0.782446    0.435133    0.268187     0.006663
CU741   CU        0.760696    0.484485    0.232380     0.006663
CU742   CU        0.823442    0.483920    0.214138     0.006663
AG743   AG        0.794675    0.477186    0.258003     0.008887
AG744   AG        0.829866    0.450043    0.256607     0.008887
CU745   CU        0.083406    0.527401    0.188671     0.006663
CU746   CU        0.088452    0.554412    0.295382     0.006663
CU747   CU        0.162727    0.537653    0.265898     0.006663
AG748   AG        0.147273    0.566366    0.235225     0.008887
CU749   CU        0.162453    0.519196    0.243623     0.006663
AG750   AG        0.171463    0.551102    0.273239     0.008887
AG751   AG        0.202987    0.510815    0.267230     0.008887
CU752   CU        0.194488    0.575541    0.245525     0.006663
CU753   CU        0.247264    0.493663    0.246404     0.006663
CU754   CU        0.250216    0.522913    0.260244     0.006663
CU755   CU        0.249482    0.523641    0.259905     0.006663
CU756   CU        0.283271    0.556651    0.225791     0.006663
CU757   CU        0.326649    0.544424    0.210536     0.006663
CU758   CU        0.287769    0.555970    0.274298     0.006663
CU759   CU        0.349513    0.509097    0.225196     0.006663
AG760   AG        0.364305    0.547981    0.261802     0.008887
CU761   CU        0.396744    0.518413    0.231641     0.006663
CU762   CU        0.387782    0.562777    0.297899     0.006663
AG763   AG        0.408366    0.525619    0.273016     0.008887
AG764   AG        0.409072    0.561630    0.246116     0.008887
AG765   AG        0.441468    0.528844    0.238351     0.008887
CU766   CU        0.481428    0.535458    0.257506     0.006663
CU767   CU        0.510993    0.517693    0.284138     0.006663
CU768   CU        0.485785    0.536086    0.243901     0.006663
AG769   AG        0.515228    0.503277    0.234998     0.008887
AG770   AG        0.527664    0.542997    0.251423     0.008887
CU771   CU        0.538104    0.538134    0.252490     0.006663
AG772   AG        0.573396    0.553382    0.234085     0.008887
AG773   AG        0.589705    0.510388    0.253294     0.008887
AG774   AG        0.614757    0.548353    0.258691     0.008887
AG775   AG        0.631292    0.508887    0.287785     0.008887
CU776   CU        0.649020    0.572099    0.237024     0.006663
AG777   AG        0.661811    0.528550    0.246581     0.008887
CU778   CU        0.650907    0.550115    0.283748     0.006663
CU779   CU        0.718251    0.506119    0.270643     0.006663
AG780   AG        0.699202    0.567941    0.235019     0.008887
AG781   AG        0.723820    0.491615    0.255847     0.008887
AG782   AG        0.731241    0.558459    0.273861     0.008887
AG783   AG        0.762194    0.516981    0.266542     0.008887
CU784   CU        0.792663    0.565561    0.232212     0.006663
CU785   CU        0.810398    0.519789    0.253031     0.006663
CU786   CU        0.815999    0.566346    0.270539     0.006663
CU787   CU        0.105291    0.602930    0.296988     0.006663
CU788   CU        0.095438    0.613654    0.248626     0.006663
CU789   CU        0.174730    0.616206    0.235285     0.006663
CU790   CU        0.170624    0.621820    0.276858     0.006663
AG791   AG        0.200123    0.568471    0.246390     0.008887
AG792   AG        0.206117    0.661741    0.273484     0.008887
AG793   AG        0.229141    0.602080    0.221363     0.008887
AG794   AG        0.219185    0.612859    0.265329     0.008887
AG795   AG        0.247192    0.572596    0.250722     0.008887
CU796   CU        0.286066    0.663612    0.278289     0.006663
CU797   CU        0.300665    0.575451    0.223576     0.006663
CU798   CU        0.313545    0.627615    0.282985     0.006663
CU799   CU        0.348142    0.593755    0.284797     0.006663
CU800   CU        0.348756    0.630539    0.229251     0.006663
AG801   AG        0.376483    0.594873    0.233999     0.008887
CU802   CU        0.367692    0.596588    0.283348     0.006663
CU803   CU        0.404902    0.571802    0.256504     0.006663
AG804   AG        0.425903    0.607547    0.238090     0.008887
CU805   CU        0.452723    0.575812    0.251160     0.006663
AG806   AG        0.466912    0.618473    0.257206     0.008887
CU807   CU        0.487992    0.600745    0.294158     0.006663
AG808   AG        0.512792    0.624364    0.230189     0.008887
CU809   CU        0.540599    0.591373    0.244200     0.006663
CU810   CU        0.542203    0.587651    0.258763     0.006663
CU811   CU        0.568758    0.572776    0.250535     0.006663
AG812   AG        0.561562    0.636429    0.235439     0.008887
AG813   AG        0.607476    0.585658    0.222748     0.008887
CU814   CU        0.592220    0.636881    0.295190     0.006663
CU815   CU        0.645328    0.582965    0.271996     0.006663
AG816   AG        0.635790    0.619746    0.224955     0.008887
AG817   AG        0.679506    0.614765    0.248550     0.008887
AG818   AG        0.653951    0.628974    0.287284     0.008887
CU819   CU        0.693266    0.575311    0.286432     0.006663
CU820   CU        0.704628    0.611005    0.254536     0.006663
CU821   CU        0.746775    0.587841    0.232259     0.006663
CU822   CU        0.743185    0.640850    0.271035     0.006663
CU823   CU        0.781035    0.606530    0.275071     0.006663
CU824   CU        0.786398    0.636652    0.168581     0.006663
CU825   CU        0.127004    0.649561    0.261245     0.006663
CU826   CU        0.190233    0.636437    0.226840     0.006663
AG827   AG        0.167689    0.682254    0.269708     0.008887
CU828   CU        0.211240    0.654186    0.276381     0.006663
CU829   CU        0.206946    0.687895    0.236110     0.006663
AG830   AG        0.232607    0.652804    0.231921     0.008887
AG831   AG        0.246132    0.691419    0.267303     0.008887
AG832   AG        0.268004    0.646632    0.268037     0.008887
AG833   AG        0.283963    0.686356    0.237565     0.008887
AG834   AG        0.310367    0.652443    0.239258     0.008887
AG835   AG        0.320246    0.691999    0.275050     0.008887
CU836   CU        0.358507    0.668672    0.253713     0.006663
CU837   CU        0.329802    0.697413    0.225753     0.006663
AG838   AG        0.395638    0.639980    0.228302     0.008887
CU839   CU        0.371548    0.688458    0.269066     0.006663
CU840   CU        0.402320    0.662133    0.308061     0.006663
CU841   CU        0.435832    0.684228    0.220734     0.006663
AG842   AG        0.474495    0.660307    0.241887     0.008887
AG843   AG        0.460617    0.699278    0.264196     0.008887
CU844   CU        0.490364    0.670664    0.290010     0.006663
AG845   AG        0.498074    0.702194    0.241595     0.008887
AG846   AG        0.525839    0.669198    0.241592     0.008887
AG847   AG        0.534164    0.694454    0.278755     0.008887
CU848   CU        0.578653    0.669677    0.267229     0.006663
AG849   AG        0.559770    0.696579    0.236217     0.008887
AG850   AG        0.605706    0.665029    0.237263     0.008887
AG851   AG        0.587060    0.695764    0.276255     0.008887
AG852   AG        0.621921    0.668267    0.282697     0.008887
AG853   AG        0.645038    0.703975    0.217681     0.008887
AG854   AG        0.655077    0.660121    0.246054     0.008887
AG855   AG        0.666840    0.690308    0.288701     0.008887
AG856   AG        0.691742    0.654432    0.281956     0.008887
CU857   CU        0.725621    0.699148    0.221690     0.006663
AG858   AG        0.708942    0.654373    0.234433     0.008887
CU859   CU        0.755376    0.683456    0.251678     0.006663
CU860   CU        0.772833    0.685036    0.260359     0.006663
CU861   CU        0.203616    0.712905    0.274062     0.006663
CU862   CU        0.257197    0.722336    0.230202     0.006663
CU863   CU        0.230174    0.768585    0.324457     0.006663
AG864   AG        0.284285    0.723928    0.268370     0.008887
CU865   CU        0.303992    0.735067    0.226731     0.006663
AG866   AG        0.306487    0.769821    0.259201     0.008887
AG867   AG        0.321695    0.755932    0.275239     0.008887
AG868   AG        0.363475    0.732084    0.285970     0.008887
AG869   AG        0.353732    0.757363    0.241101     0.008887
CU870   CU        0.381390    0.725257    0.238282     0.006663
AG871   AG        0.391617    0.766043    0.268317     0.008887
AG872   AG        0.429672    0.739459    0.259961     0.008887
CU873   CU        0.402567    0.769382    0.227659     0.006663
AG874   AG        0.469845    0.736969    0.236130     0.008887
CU875   CU        0.467031    0.769893    0.274551     0.006663
AG876   AG        0.498601    0.733370    0.277450     0.008887
CU877   CU        0.500580    0.771463    0.243004     0.006663
AG878   AG        0.529606    0.729308    0.240070     0.008887
AG879   AG        0.533697    0.770473    0.270591     0.008887
AG880   AG        0.552801    0.724126    0.279872     0.008887
AG881   AG        0.569266    0.747673    0.243091     0.008887
AG882   AG        0.601383    0.711944    0.225832     0.008887
CU883   CU        0.587580    0.748087    0.262548     0.006663
AG884   AG        0.630012    0.714702    0.262898     0.008887
CU885   CU        0.614906    0.781355    0.271710     0.006663
AG886   AG        0.683174    0.706642    0.247887     0.008887
CU887   CU        0.674892    0.771962    0.285671     0.006663
CU888   CU        0.697732    0.730584    0.284225     0.006663
AG889   AG        0.348347    0.792863    0.277752     0.008887
CU890   CU        0.371734    0.802406    0.233984     0.006663
CU891   CU        0.380143    0.805294    0.244953     0.006663
CU892   CU        0.454745    0.777605    0.254121     0.006663
CU893   CU        0.436217    0.846130    0.315981     0.006663
CU894   CU        0.504393    0.810055    0.274641     0.006663
AG895   AG        0.544923    0.772064    0.216351     0.008887
CU896   CU        0.572681    0.796763    0.257473     0.006663
AG897   AG        0.309018    0.042748    0.347967     0.008887
CU898   CU        0.329664    0.042943    0.304229     0.006663
AG899   AG        0.388157    0.062752    0.354965     0.008887
CU900   CU        0.429328    0.067677    0.320512     0.006663
CU901   CU        0.474528    0.072018    0.349044     0.006663
CU902   CU        0.502832    0.034270    0.323130     0.006663
CU903   CU        0.523352    0.081627    0.339931     0.006663
CU904   CU        0.550604    0.045263    0.320023     0.006663
CU905   CU        0.610177    0.070881    0.362022     0.006663
CU906   CU        0.194100    0.111949    0.271797     0.006663
CU907   CU        0.252836    0.150645    0.329467     0.006663
AG908   AG        0.278904    0.079350    0.356085     0.008887
CU909   CU        0.271206    0.107286    0.316576     0.006663
AG910   AG        0.312789    0.081703    0.319915     0.008887
AG911   AG        0.309535    0.118937    0.347459     0.008887
CU912   CU        0.356056    0.103504    0.347643     0.006663
AG913   AG        0.343761    0.118260    0.307152     0.008887
AG914   AG        0.384277    0.088056    0.312581     0.008887
CU915   CU        0.378819    0.113773    0.356177     0.006663
CU916   CU        0.426153    0.092660    0.340257     0.006663
CU917   CU        0.421064    0.108675    0.288676     0.006663
CU918   CU        0.471015    0.087558    0.323011     0.006663
CU919   CU        0.470544    0.122817    0.354114     0.006663
CU920   CU        0.506631    0.078778    0.348204     0.006663
AG921   AG        0.506071    0.123650    0.316343     0.008887
CU922   CU        0.504883    0.078830    0.296084     0.006663
AG923   AG        0.537719    0.121847    0.354631     0.008887
AG924   AG        0.571345    0.080990    0.338015     0.008887
AG925   AG        0.553438    0.121986    0.312676     0.008887
CU926   CU        0.603798    0.048809    0.320157     0.006663
AG927   AG        0.586899    0.120277    0.351492     0.008887
CU928   CU        0.636167    0.093216    0.333874     0.006663
CU929   CU        0.643312    0.125164    0.295481     0.006663
AG930   AG        0.659954    0.134046    0.336856     0.008887
AG931   AG        0.694380    0.131932    0.302144     0.008887
CU932   CU        0.142323    0.194691    0.309826     0.006663
CU933   CU        0.172785    0.162765    0.309733     0.006663
AG934   AG        0.177444    0.203247    0.340892     0.008887
AG935   AG        0.212268    0.175264    0.334483     0.008887
AG936   AG        0.210426    0.227578    0.324183     0.008887
CU937   CU        0.219769    0.124055    0.321514     0.006663
AG938   AG        0.250871    0.196247    0.361923     0.008887
AG939   AG        0.281602    0.164138    0.353416     0.008887
AG940   AG        0.279272    0.197125    0.320642     0.008887
CU941   CU        0.301161    0.155010    0.305080     0.006663
AG942   AG        0.297828    0.202364    0.369687     0.008887
AG943   AG        0.342526    0.153533    0.336168     0.008887
CU944   CU        0.361775    0.199234    0.280298     0.006663
AG945   AG        0.385505    0.142617    0.310020     0.008887
AG946   AG        0.373410    0.190080    0.323825     0.008887
AG947   AG        0.430531    0.152178    0.345298     0.008887
AG948   AG        0.416682    0.184491    0.312262     0.008887
CU949   CU        0.473742    0.156943    0.300919     0.006663
CU950   CU        0.441998    0.185437    0.316065     0.006663
AG951   AG        0.485297    0.162658    0.346074     0.008887
CU952   CU        0.486564    0.233281    0.321854     0.006663
AG953   AG        0.526929    0.166846    0.315232     0.008887
AG954   AG        0.521669    0.201361    0.346317     0.008887
AG955   AG        0.565628    0.163266    0.340516     0.008887
AG956   AG        0.581547    0.198432    0.264230     0.008887
AG957   AG        0.612753    0.156132    0.325938     0.008887
AG958   AG        0.599475    0.202409    0.350758     0.008887
AG959   AG        0.640415    0.178181    0.352182     0.008887
AG960   AG        0.626844    0.205570    0.315549     0.008887
AG961   AG        0.662860    0.171184    0.312521     0.008887
CU962   CU        0.681432    0.165403    0.301055     0.006663
AG963   AG        0.695519    0.159284    0.346721     0.008887
CU964   CU        0.704283    0.199762    0.317413     0.006663
CU965   CU        0.729661    0.156410    0.317998     0.006663
AG966   AG        0.727415    0.193809    0.348824     0.008887
CU967   CU        0.761407    0.195233    0.312649     0.006663
CU968   CU        0.080293    0.272933    0.321741     0.006663
CU969   CU        0.137354    0.230164    0.352754     0.006663
CU970   CU        0.124097    0.269883    0.315148     0.006663
AG971   AG        0.159038    0.242251    0.317551     0.008887
AG972   AG        0.154205    0.286032    0.347596     0.008887
CU973   CU        0.222656    0.255014    0.350940     0.006663
AG974   AG        0.191210    0.273222    0.312192     0.008887
AG975   AG        0.243093    0.244009    0.291287     0.008887
AG976   AG        0.230031    0.271701    0.331244     0.008887
AG977   AG        0.258734    0.239650    0.334875     0.008887
AG978   AG        0.275163    0.276224    0.302705     0.008887
CU979   CU        0.318706    0.218308    0.328254     0.006663
AG980   AG        0.322391    0.262394    0.354528     0.008887
CU981   CU        0.358779    0.228850    0.351109     0.006663
CU982   CU        0.338830    0.276625    0.305757     0.006663
CU983   CU        0.399975    0.223967    0.301926     0.006663
CU984   CU        0.372460    0.268975    0.360931     0.006663
AG985   AG        0.405179    0.224187    0.338040     0.008887
AG986   AG        0.429243    0.264685    0.328115     0.008887
AG987   AG        0.450030    0.222849    0.313812     0.008887
CU988   CU        0.443939    0.244643    0.363579     0.006663
AG989   AG        0.477468    0.211542    0.356530     0.008887
CU990   CU        0.507264    0.278867    0.318620     0.006663
AG991   AG        0.535430    0.236588    0.311009     0.008887
AG992   AG        0.512935    0.246941    0.355660     0.008887
AG993   AG        0.563712    0.240210    0.357553     0.008887
CU994   CU        0.575480    0.270695    0.317403     0.006663
AG995   AG        0.578458    0.224254    0.311925     0.008887
AG996   AG        0.606892    0.256103    0.345061     0.008887
AG997   AG        0.642811    0.227303    0.359187     0.008887
AG998   AG        0.635681    0.255167    0.308657     0.008887
AG999   AG        0.671422    0.230222    0.304147     0.008887
CU1000   CU        0.669696    0.262337    0.346774     0.006663
AG1001   AG        0.706418    0.235357    0.359297     0.008887
CU1002   CU        0.700488    0.265129    0.314235     0.006663
AG1003   AG        0.741493    0.234251    0.322707     0.008887
AG1004   AG        0.744990    0.266854    0.365404     0.008887
CU1005   CU        0.765925    0.208385    0.363986     0.006663
CU1006   CU        0.780981    0.267255    0.310288     0.006663
CU1007   CU        0.827836    0.269668    0.371877     0.006663
CU1008   CU        0.060501    0.293811    0.364567     0.006663
CU1009   CU        0.039678    0.332842    0.357075     0.006663
CU1010   CU        0.071327    0.287237    0.317757     0.006663
CU1011   CU        0.125449    0.350906    0.371507     0.006663
CU1012   CU        0.125223    0.332500    0.344204     0.006663
CU1013   CU        0.134708    0.341406    0.294909     0.006663
CU1014   CU        0.186401    0.288136    0.309875     0.006663
AG1015   AG        0.169889    0.333517    0.351261     0.008887
CU1016   CU        0.200654    0.300279    0.351549     0.006663
CU1017   CU        0.223321    0.336238    0.303822     0.006663
AG1018   AG        0.235499    0.288775    0.325379     0.008887
AG1019   AG        0.238920    0.320151    0.360977     0.008887
AG1020   AG        0.277283    0.284293    0.353663     0.008887
AG1021   AG        0.269049    0.324785    0.321677     0.008887
CU1022   CU        0.311066    0.304670    0.321006     0.006663
CU1023   CU        0.309722    0.303184    0.332016     0.006663
AG1024   AG        0.351377    0.307585    0.346441     0.008887
AG1025   AG        0.336243    0.348321    0.330083     0.008887
CU1026   CU        0.401111    0.307115    0.337384     0.006663
AG1027   AG        0.378796    0.344372    0.322580     0.008887
CU1028   CU        0.409902    0.304801    0.327171     0.006663
AG1029   AG        0.423585    0.341663    0.307227     0.008887
CU1030   CU        0.451045    0.304093    0.307282     0.006663
AG1031   AG        0.442145    0.339571    0.346022     0.008887
AG1032   AG        0.502637    0.298261    0.358452     0.008887
AG1033   AG        0.490200    0.330364    0.329139     0.008887
AG1034   AG        0.534695    0.320299    0.306976     0.008887
AG1035   AG        0.521946    0.338671    0.370838     0.008887
CU1036   CU        0.555794    0.281508    0.330719     0.006663
AG1037   AG        0.589201    0.317338    0.308683     0.008887
CU1038   CU        0.595403    0.286407    0.313608     0.006663
AG1039   AG        0.608329    0.350536    0.340259     0.008887
CU1040   CU        0.641431    0.314182    0.360618     0.006663
CU1041   CU        0.642224    0.325832    0.314872     0.006663
CU1042   CU        0.694114    0.297011    0.311536     0.006663
CU1043   CU        0.651456    0.329286    0.357620     0.006663
AG1044   AG        0.702466    0.291337    0.363416     0.008887
AG1045   AG        0.726648    0.338178    0.312333     0.008887
AG1046   AG        0.737669    0.291314    0.326672     0.008887
CU1047   CU        0.732250    0.321326    0.360122     0.006663
CU1048   CU        0.786461    0.276965    0.336850     0.006663
AG1049   AG        0.767528    0.317711    0.306297     0.008887
CU1050   CU        0.811222    0.309227    0.316633     0.006663
CU1051   CU        0.809706    0.345129    0.348521     0.006663
CU1052   CU        0.867443    0.293519    0.361063     0.006663
CU1053   CU        0.836552    0.353923    0.314310     0.006663
CU1054   CU        0.056815    0.370553    0.331228     0.006663
CU1055   CU        0.073492    0.406684    0.299258     0.006663
AG1056   AG        0.093438    0.367406    0.290541     0.008887
AG1057   AG        0.087780    0.408686    0.312613     0.008887
AG1058   AG        0.140035    0.376152    0.338906     0.008887
AG1059   AG        0.138010    0.396606    0.299088     0.008887
AG1060   AG        0.167922    0.363579    0.319014     0.008887
AG1061   AG        0.170222    0.406628    0.345707     0.008887
AG1062   AG        0.206707    0.367241    0.346420     0.008887
AG1063   AG        0.188964    0.398665    0.298804     0.008887
CU1064   CU        0.220896    0.361976    0.296737     0.006663
CU1065   CU        0.250438    0.421821    0.348034     0.006663
CU1066   CU        0.293720    0.331562    0.360399     0.006663
AG1067   AG        0.284540    0.419863    0.308216     0.008887
CU1068   CU        0.296967    0.362446    0.346606     0.006663
CU1069   CU        0.323224    0.398141    0.334770     0.006663
AG1070   AG        0.368969    0.388030    0.326608     0.008887
CU1071   CU        0.320478    0.385279    0.306066     0.006663
CU1072   CU        0.399928    0.380444    0.296189     0.006663
CU1073   CU        0.393988    0.417727    0.363141     0.006663
AG1074   AG        0.409376    0.375127    0.347534     0.008887
AG1075   AG        0.417597    0.418977    0.283351     0.008887
AG1076   AG        0.446168    0.385110    0.317882     0.008887
CU1077   CU        0.437066    0.418194    0.345959     0.006663
CU1078   CU        0.510818    0.369410    0.340162     0.006663
CU1079   CU        0.491465    0.395426    0.297325     0.006663
AG1080   AG        0.566206    0.359836    0.307154     0.008887
AG1081   AG        0.527638    0.403222    0.366380     0.008887
AG1082   AG        0.565068    0.380553    0.351296     0.008887
CU1083   CU        0.566745    0.419706    0.313897     0.006663
CU1084   CU        0.579865    0.372270    0.305984     0.006663
CU1085   CU        0.573834    0.389643    0.350784     0.006663
CU1086   CU        0.631834    0.374864    0.308317     0.006663
CU1087   CU        0.624020    0.420688    0.308381     0.006663
CU1088   CU        0.649121    0.355905    0.321105     0.006663
CU1089   CU        0.666628    0.404519    0.338112     0.006663
CU1090   CU        0.721428    0.368035    0.346014     0.006663
CU1091   CU        0.713437    0.393601    0.267051     0.006663
CU1092   CU        0.758136    0.393572    0.288791     0.006663
CU1093   CU        0.749279    0.413141    0.334412     0.006663
CU1094   CU        0.779787    0.379732    0.357795     0.006663
CU1095   CU        0.764982    0.398016    0.334363     0.006663
AG1096   AG        0.804607    0.387889    0.299018     0.008887
AG1097   AG        0.811203    0.412564    0.333564     0.008887
CU1098   CU        0.827790    0.393745    0.346545     0.006663
CU1099   CU        0.840367    0.418647    0.297199     0.006663
CU1100   CU        0.046019    0.420271    0.337617     0.006663
CU1101   CU        0.054790    0.491855    0.265095     0.006663
AG1102   AG        0.117333    0.439406    0.295510     0.008887
AG1103   AG        0.100072    0.489839    0.352457     0.008887
AG1104   AG        0.129916    0.432305    0.338772     0.008887
AG1105   AG        0.143596    0.476350    0.309162     0.008887
AG1106   AG        0.163862    0.438767    0.309486     0.008887
AG1107   AG        0.183763    0.472319    0.344416     0.008887
AG1108   AG        0.209339    0.431275    0.337486     0.008887
AG1109   AG        0.199319    0.480582    0.306063     0.008887
CU1110   CU        0.235811    0.439305    0.301089     0.006663
CU1111   CU        0.229163    0.466072    0.368244     0.006663
CU1112   CU        0.274070    0.452652    0.362693     0.006663
CU1113   CU        0.282672    0.469359    0.303339     0.006663
AG1114   AG        0.318033    0.436049    0.299261     0.008887
CU1115   CU        0.323531    0.460511    0.341759     0.006663
CU1116   CU        0.313955    0.469325    0.359396     0.006663
AG1117   AG        0.366581    0.469777    0.338852     0.008887
AG1118   AG        0.362832    0.459797    0.294838     0.008887
CU1119   CU        0.354438    0.456416    0.378067     0.006663
CU1120   CU        0.410710    0.457419    0.332161     0.006663
CU1121   CU        0.440252    0.460422    0.306368     0.006663
CU1122   CU        0.438847    0.458003    0.288831     0.006663
AG1123   AG        0.451610    0.463519    0.378801     0.008887
CU1124   CU        0.453671    0.434705    0.336542     0.006663
CU1125   CU        0.487122    0.469234    0.288296     0.006663
CU1126   CU        0.542867    0.462259    0.301059     0.006663
CU1127   CU        0.516620    0.496193    0.325936     0.006663
AG1128   AG        0.565213    0.429307    0.360629     0.008887
CU1129   CU        0.563991    0.450713    0.315923     0.006663
CU1130   CU        0.596397    0.458495    0.328069     0.006663
CU1131   CU        0.613300    0.479231    0.373519     0.006663
CU1132   CU        0.638366    0.447057    0.347012     0.006663
CU1133   CU        0.634958    0.480330    0.300564     0.006663
AG1134   AG        0.673306    0.453454    0.319805     0.008887
AG1135   AG        0.667469    0.479790    0.358263     0.008887
AG1136   AG        0.707518    0.470528    0.341577     0.008887
CU1137   CU        0.709292    0.501198    0.304544     0.006663
AG1138   AG        0.752736    0.457227    0.321764     0.008887
AG1139   AG        0.742633    0.498581    0.341636     0.008887
AG1140   AG        0.785326    0.445274    0.347200     0.008887
AG1141   AG        0.799645    0.456420    0.300295     0.008887
CU1142   CU        0.792312    0.439606    0.294941     0.006663
AG1143   AG        0.830356    0.458694    0.334198     0.008887
AG1144   AG        0.835497    0.430642    0.295800     0.008887
CU1145   CU        0.831653    0.483627    0.292317     0.006663
AG1146   AG        0.058085    0.551683    0.334928     0.008887
CU1147   CU        0.069710    0.529096    0.291368     0.006663
CU1148   CU        0.089771    0.527316    0.314145     0.006663
AG1149   AG        0.100907    0.567528    0.345289     0.008887
AG1150   AG        0.147510    0.505371    0.348929     0.008887
AG1151   AG        0.130355    0.554912    0.306272     0.008887
AG1152   AG        0.169189    0.520060    0.306401     0.008887
CU1153   CU        0.186387    0.538322    0.363394     0.006663
AG1154   AG        0.185799    0.526454    0.351180     0.008887
AG1155   AG        0.219326    0.557726    0.285559     0.008887
AG1156   AG        0.236526    0.515698    0.306721     0.008887
AG1157   AG        0.223615    0.553996    0.332543     0.008887
AG1158   AG        0.264736    0.533687    0.344143     0.008887
AG1159   AG        0.264528    0.556333    0.299153     0.008887
CU1160   CU        0.293561    0.524489    0.307803     0.006663
AG1161   AG        0.293785    0.567226    0.369437     0.008887
AG1162   AG        0.338960    0.506315    0.356192     0.008887
CU1163   CU        0.331092    0.550501    0.339414     0.006663
AG1164   AG        0.380751    0.501510    0.308846     0.008887
AG1165   AG        0.373109    0.537597    0.341802     0.008887
AG1166   AG        0.451028    0.519495    0.341431     0.008887
AG1167   AG        0.412713    0.533121    0.319869     0.008887
CU1168   CU        0.454243    0.504173    0.285089     0.006663
AG1169   AG        0.460398    0.564123    0.356430     0.008887
AG1170   AG        0.492286    0.504077    0.366429     0.008887
CU1171   CU        0.459240    0.547587    0.307029     0.006663
CU1172   CU        0.551192    0.514373    0.289844     0.006663
CU1173   CU        0.489860    0.560639    0.363690     0.006663
AG1174   AG        0.593702    0.529826    0.371798     0.008887
AG1175   AG        0.573250    0.544998    0.326492     0.008887
CU1176   CU        0.613369    0.509756    0.332566     0.006663
AG1177   AG        0.613721    0.573973    0.346691     0.008887
CU1178   CU        0.637393    0.521788    0.361677     0.006663
AG1179   AG        0.619589    0.558199    0.306476     0.008887
AG1180   AG        0.667872    0.515792    0.322593     0.008887
CU1181   CU        0.698622    0.513690    0.352152     0.006663
CU1182   CU        0.705503    0.523721    0.340257     0.006663
AG1183   AG        0.694887    0.552903    0.309238     0.008887
CU1184   CU        0.711733    0.488442    0.313032     0.006663
AG1185   AG        0.749169    0.539591    0.358340     0.008887
CU1186   CU        0.756974    0.532157    0.358050     0.006663
AG1187   AG        0.741521    0.530665    0.306863     0.008887
CU1188   CU        0.816961    0.531546    0.302333     0.006663
AG1189   AG        0.804807    0.546547    0.350690     0.008887
CU1190   CU        0.838797    0.510294    0.337738     0.006663
CU1191   CU        0.851383    0.553494    0.340593     0.006663
CU1192   CU        0.068909    0.591175    0.369393     0.006663
CU1193   CU        0.085093    0.574088    0.298242     0.006663
CU1194   CU        0.096065    0.645803    0.344634     0.006663
AG1195   AG        0.139317    0.599937    0.327441     0.008887
AG1196   AG        0.126010    0.640996    0.304572     0.008887
AG1197   AG        0.177029    0.567712    0.319447     0.008887
CU1198   CU        0.182811    0.634642    0.350154     0.006663
CU1199   CU        0.215697    0.597601    0.322988     0.006663
AG1200   AG        0.203855    0.627265    0.309117     0.008887
CU1201   CU        0.226396    0.605307    0.314718     0.006663
CU1202   CU        0.223828    0.610355    0.365208     0.006663
AG1203   AG        0.262589    0.585599    0.337909     0.008887
CU1204   CU        0.281895    0.629922    0.311126     0.006663
CU1205   CU        0.305422    0.587374    0.309278     0.006663
CU1206   CU        0.292077    0.621639    0.332488     0.006663
CU1207   CU        0.350188    0.608936    0.332087     0.006663
CU1208   CU        0.325225    0.618644    0.302578     0.006663
CU1209   CU        0.390932    0.604512    0.310880     0.006663
CU1210   CU        0.394786    0.613223    0.356228     0.006663
CU1211   CU        0.425961    0.579658    0.330947     0.006663
CU1212   CU        0.391083    0.617642    0.313235     0.006663
CU1213   CU        0.457624    0.635671    0.305726     0.006663
CU1214   CU        0.495876    0.615695    0.324417     0.006663
CU1215   CU        0.478347    0.605780    0.361537     0.006663
CU1216   CU        0.474888    0.639502    0.330600     0.006663
CU1217   CU        0.533669    0.592979    0.295813     0.006663
AG1218   AG        0.515578    0.641534    0.358945     0.008887
CU1219   CU        0.557851    0.583147    0.350703     0.006663
AG1220   AG        0.547924    0.630220    0.326370     0.008887
AG1221   AG        0.579795    0.591614    0.311713     0.008887
AG1222   AG        0.593518    0.620779    0.350156     0.008887
CU1223   CU        0.604698    0.568037    0.344183     0.006663
AG1224   AG        0.621458    0.608876    0.312085     0.008887
AG1225   AG        0.658392    0.586723    0.316775     0.008887
CU1226   CU        0.662004    0.628137    0.337701     0.006663
AG1227   AG        0.704086    0.596031    0.336543     0.008887
AG1228   AG        0.693385    0.590427    0.282264     0.008887
CU1229   CU        0.738785    0.597699    0.300056     0.006663
AG1230   AG        0.751816    0.622805    0.346610     0.008887
AG1231   AG        0.776129    0.582246    0.351377     0.008887
CU1232   CU        0.815857    0.620450    0.300663     0.006663
CU1233   CU        0.837793    0.635245    0.321774     0.006663
AG1234   AG        0.803372    0.623989    0.349530     0.008887
AG1235   AG        0.821528    0.591914    0.339882     0.008887
CU1236   CU        0.141292    0.645821    0.349193     0.006663
CU1237   CU        0.126605    0.691621    0.287435     0.006663
AG1238   AG        0.171886    0.661411    0.311075     0.008887
AG1239   AG        0.173484    0.688438    0.350003     0.008887
AG1240   AG        0.197365    0.649042    0.351177     0.008887
AG1241   AG        0.210390    0.684927    0.317044     0.008887
AG1242   AG        0.244602    0.658380    0.307479     0.008887
AG1243   AG        0.248797    0.692303    0.345557     0.008887
AG1244   AG        0.285282    0.666996    0.352424     0.008887
AG1245   AG        0.279546    0.695774    0.308658     0.008887
AG1246   AG        0.317626    0.664588    0.320819     0.008887
CU1247   CU        0.325047    0.689435    0.335461     0.006663
CU1248   CU        0.362938    0.668456    0.345973     0.006663
AG1249   AG        0.357610    0.692765    0.305153     0.008887
AG1250   AG        0.359120    0.646550    0.299386     0.008887
AG1251   AG        0.403885    0.695731    0.354380     0.008887
AG1252   AG        0.429547    0.648676    0.350588     0.008887
AG1253   AG        0.419516    0.701749    0.292122     0.008887
AG1254   AG        0.450450    0.680273    0.315088     0.008887
AG1255   AG        0.450978    0.689741    0.365666     0.008887
AG1256   AG        0.475564    0.655797    0.350089     0.008887
CU1257   CU        0.490098    0.695604    0.302654     0.006663
AG1258   AG        0.516080    0.666861    0.323925     0.008887
AG1259   AG        0.528937    0.692979    0.360036     0.008887
AG1260   AG        0.562213    0.661191    0.353657     0.008887
AG1261   AG        0.563361    0.692371    0.318825     0.008887
AG1262   AG        0.592185    0.656974    0.316719     0.008887
AG1263   AG        0.604320    0.695778    0.352205     0.008887
AG1264   AG        0.620160    0.658688    0.333615     0.008887
AG1265   AG        0.621531    0.701490    0.313303     0.008887
CU1266   CU        0.667727    0.658717    0.318779     0.006663
CU1267   CU        0.650507    0.714647    0.355530     0.006663
AG1268   AG        0.742678    0.678392    0.383753     0.008887
CU1269   CU        0.703709    0.693318    0.315138     0.006663
CU1270   CU        0.767432    0.627503    0.316413     0.006663
CU1271   CU        0.740732    0.701065    0.342664     0.006663
AG1272   AG        0.771929    0.663378    0.351239     0.008887
CU1273   CU        0.755492    0.702780    0.298726     0.006663
AG1274   AG        0.168063    0.711521    0.311832     0.008887
AG1275   AG        0.209631    0.724557    0.340052     0.008887
CU1276   CU        0.135545    0.741583    0.290154     0.006663
AG1277   AG        0.245372    0.721558    0.305266     0.008887
AG1278   AG        0.258054    0.751763    0.339942     0.008887
AG1279   AG        0.289330    0.721678    0.352959     0.008887
AG1280   AG        0.278985    0.756844    0.299071     0.008887
AG1281   AG        0.321280    0.726619    0.309118     0.008887
AG1282   AG        0.305864    0.763266    0.335789     0.008887
AG1283   AG        0.363219    0.720892    0.337999     0.008887
AG1284   AG        0.352042    0.760629    0.320163     0.008887
AG1285   AG        0.399780    0.741713    0.312175     0.008887
CU1286   CU        0.409181    0.770163    0.352857     0.006663
AG1287   AG        0.436074    0.728259    0.336224     0.008887
AG1288   AG        0.418095    0.766808    0.304647     0.008887
AG1289   AG        0.460186    0.733920    0.299363     0.008887
AG1290   AG        0.454457    0.769808    0.332002     0.008887
AG1291   AG        0.487864    0.734544    0.339041     0.008887
AG1292   AG        0.496736    0.774785    0.306213     0.008887
CU1293   CU        0.521602    0.736825    0.308195     0.006663
CU1294   CU        0.541553    0.792400    0.317211     0.006663
AG1295   AG        0.568917    0.724549    0.356273     0.008887
CU1296   CU        0.574627    0.770090    0.289880     0.006663
CU1297   CU        0.595069    0.707880    0.299526     0.006663
CU1298   CU        0.621908    0.787291    0.360453     0.006663
CU1299   CU        0.627817    0.743304    0.338653     0.006663
CU1300   CU        0.636761    0.775284    0.315696     0.006663
AG1301   AG        0.660652    0.733482    0.313426     0.008887
CU1302   CU        0.658523    0.781816    0.334069     0.006663
CU1303   CU        0.720440    0.738255    0.363924     0.006663
CU1304   CU        0.703776    0.760892    0.320318     0.006663
CU1305   CU        0.732371    0.722223    0.261846     0.006663
CU1306   CU        0.270885    0.796603    0.324949     0.006663
AG1307   AG        0.317060    0.793605    0.307286     0.008887
CU1308   CU        0.313143    0.857826    0.375122     0.006663
AG1309   AG        0.347371    0.806075    0.348139     0.008887
CU1310   CU        0.344045    0.835331    0.310827     0.006663
CU1311   CU        0.374510    0.794688    0.307206     0.006663
CU1312   CU        0.383060    0.840769    0.332604     0.006663
AG1313   AG        0.391439    0.778955    0.347228     0.008887
CU1314   CU        0.420034    0.842455    0.299245     0.006663
CU1315   CU        0.455893    0.797719    0.296561     0.006663
CU1316   CU        0.449131    0.832138    0.332317     0.006663
CU1317   CU        0.499228    0.781944    0.358672     0.006663
CU1318   CU        0.472689    0.811044    0.338144     0.006663
CU1319   CU        0.545918    0.805378    0.296393     0.006663
CU1320   CU        0.539346    0.826604    0.344753     0.006663
AG1321   AG        0.576793    0.799823    0.367937     0.008887
CU1322   CU        0.543765    0.813729    0.300938     0.006663
AG1323   AG        0.590892    0.793600    0.319279     0.008887
CU1324   CU        0.608855    0.839232    0.366008     0.006663
CU1325   CU        0.622669    0.787293    0.360176     0.006663
CU1326   CU        0.326862    0.062502    0.417603     0.006663
AG1327   AG        0.347615    0.046251    0.382147     0.008887
AG1328   AG        0.374828    0.054474    0.421814     0.008887
CU1329   CU        0.412162    0.049653    0.453733     0.006663
AG1330   AG        0.414879    0.080501    0.399089     0.008887
CU1331   CU        0.422320    0.000982    0.390814     0.006663
CU1332   CU        0.445721    0.042192    0.408133     0.006663
CU1333   CU        0.521622    0.010654    0.397971     0.006663
AG1334   AG        0.490291    0.051104    0.386574     0.008887
AG1335   AG        0.530027    0.051558    0.413720     0.008887
CU1336   CU        0.535987    0.044036    0.368262     0.006663
CU1337   CU        0.607389    0.038231    0.403672     0.006663
CU1338   CU        0.197871    0.141894    0.415604     0.006663
CU1339   CU        0.205082    0.123511    0.375595     0.006663
CU1340   CU        0.242040    0.077221    0.395495     0.006663
AG1341   AG        0.246949    0.125830    0.411371     0.008887
AG1342   AG        0.287397    0.096098    0.405143     0.008887
CU1343   CU        0.293981    0.125708    0.369497     0.006663
AG1344   AG        0.321373    0.084273    0.373025     0.008887
AG1345   AG        0.301220    0.120259    0.417116     0.008887
AG1346   AG        0.329852    0.076370    0.418584     0.008887
AG1347   AG        0.339170    0.122617    0.394439     0.008887
AG1348   AG        0.365312    0.086668    0.392046     0.008887
AG1349   AG        0.384743    0.120462    0.407420     0.008887
AG1350   AG        0.446849    0.075182    0.436301     0.008887
AG1351   AG        0.419172    0.119737    0.375676     0.008887
AG1352   AG        0.457236    0.087465    0.387146     0.008887
AG1353   AG        0.438324    0.119458    0.421106     0.008887
CU1354   CU        0.502852    0.084372    0.413191     0.006663
CU1355   CU        0.470573    0.136054    0.385314     0.006663
AG1356   AG        0.514415    0.089754    0.389568     0.008887
CU1357   CU        0.517083    0.140650    0.397073     0.006663
AG1358   AG        0.556396    0.089936    0.412537     0.008887
CU1359   CU        0.572679    0.114274    0.366256     0.006663
AG1360   AG        0.601565    0.082150    0.379775     0.008887
AG1361   AG        0.595571    0.123954    0.406781     0.008887
AG1362   AG        0.636152    0.101948    0.412844     0.008887
AG1363   AG        0.633016    0.120952    0.374334     0.008887
CU1364   CU        0.677413    0.103147    0.367037     0.006663
CU1365   CU        0.668111    0.116339    0.415636     0.006663
CU1366   CU        0.706083    0.147215    0.355558     0.006663
CU1367   CU        0.754792    0.144914    0.418967     0.006663
CU1368   CU        0.147732    0.151494    0.426303     0.006663
CU1369   CU        0.128761    0.213453    0.356737     0.006663
AG1370   AG        0.182308    0.168472    0.373725     0.008887
CU1371   CU        0.178462    0.185882    0.417092     0.006663
CU1372   CU        0.202751    0.149851    0.419867     0.006663
AG1373   AG        0.209820    0.210341    0.374259     0.008887
AG1374   AG        0.277613    0.168400    0.399098     0.008887
AG1375   AG        0.233042    0.188800    0.410672     0.008887
CU1376   CU        0.279702    0.161685    0.419624     0.006663
AG1377   AG        0.271474    0.215033    0.408758     0.008887
AG1378   AG        0.319599    0.159468    0.384772     0.008887
AG1379   AG        0.312054    0.193303    0.419401     0.008887
AG1380   AG        0.342198    0.148156    0.431315     0.008887
AG1381   AG        0.344422    0.188746    0.362324     0.008887
AG1382   AG        0.409617    0.165200    0.393370     0.008887
AG1383   AG        0.363440    0.188150    0.411564     0.008887
CU1384   CU        0.429829    0.163293    0.399856     0.006663
AG1385   AG        0.438504    0.196879    0.371664     0.008887
AG1386   AG        0.457323    0.152394    0.385700     0.008887
AG1387   AG        0.455256    0.220151    0.404678     0.008887
AG1388   AG        0.477017    0.155521    0.426415     0.008887
AG1389   AG        0.493316    0.186444    0.389451     0.008887
CU1390   CU        0.504859    0.140605    0.383567     0.006663
AG1391   AG        0.528074    0.187409    0.419667     0.008887
CU1392   CU        0.561138    0.165865    0.439930     0.006663
AG1393   AG        0.563137    0.193366    0.381602     0.008887
AG1394   AG        0.604447    0.158663    0.371545     0.008887
AG1395   AG        0.595032    0.178703    0.415645     0.008887
AG1396   AG        0.637653    0.152495    0.412973     0.008887
AG1397   AG        0.632804    0.196089    0.393518     0.008887
CU1398   CU        0.670356    0.159362    0.381091     0.006663
AG1399   AG        0.673019    0.192226    0.423613     0.008887
AG1400   AG        0.721049    0.172235    0.435283     0.008887
CU1401   CU        0.711784    0.206018    0.398611     0.006663
AG1402   AG        0.733387    0.176086    0.390393     0.008887
AG1403   AG        0.762162    0.197784    0.415748     0.008887
CU1404   CU        0.765515    0.150171    0.420748     0.006663
CU1405   CU        0.779980    0.164162    0.382192     0.006663
CU1406   CU        0.087296    0.210361    0.380931     0.006663
CU1407   CU        0.065575    0.279991    0.409298     0.006663
AG1408   AG        0.125764    0.226163    0.409024     0.008887
CU1409   CU        0.112105    0.253240    0.375947     0.006663
AG1410   AG        0.167051    0.213590    0.390621     0.008887
AG1411   AG        0.157043    0.251775    0.430692     0.008887
AG1412   AG        0.201907    0.224734    0.426705     0.008887
AG1413   AG        0.190663    0.248870    0.358291     0.008887
CU1414   CU        0.231933    0.233654    0.387162     0.006663
AG1415   AG        0.243559    0.254871    0.432452     0.008887
CU1416   CU        0.286895    0.239984    0.406102     0.006663
CU1417   CU        0.289628    0.226249    0.362613     0.006663
AG1418   AG        0.331963    0.224714    0.390809     0.008887
AG1419   AG        0.327460    0.264126    0.409767     0.008887
AG1420   AG        0.365288    0.236060    0.429645     0.008887
CU1421   CU        0.360284    0.269329    0.382275     0.006663
CU1422   CU        0.370798    0.226804    0.377406     0.006663
AG1423   AG        0.372354    0.284104    0.422683     0.008887
AG1424   AG        0.408951    0.211624    0.412343     0.008887
AG1425   AG        0.417767    0.280810    0.372332     0.008887
AG1426   AG        0.465135    0.260646    0.360701     0.008887
AG1427   AG        0.445200    0.271961    0.405557     0.008887
CU1428   CU        0.497993    0.221618    0.420564     0.006663
AG1429   AG        0.494074    0.264721    0.394222     0.008887
AG1430   AG        0.531372    0.226885    0.390803     0.008887
CU1431   CU        0.525240    0.256262    0.430562     0.006663
AG1432   AG        0.560211    0.215680    0.429870     0.008887
CU1433   CU        0.567356    0.256100    0.407290     0.006663
AG1434   AG        0.594419    0.225880    0.395269     0.008887
CU1435   CU        0.614133    0.298266    0.401150     0.006663
CU1436   CU        0.642849    0.220727    0.437573     0.006663
CU1437   CU        0.631642    0.249553    0.399412     0.006663
AG1438   AG        0.674305    0.236036    0.394199     0.008887
CU1439   CU        0.678285    0.289397    0.445688     0.006663
CU1440   CU        0.713192    0.209700    0.412553     0.006663
AG1441   AG        0.712395    0.259562    0.404056     0.008887
AG1442   AG        0.735446    0.224196    0.392028     0.008887
CU1443   CU        0.755674    0.268710    0.409308     0.006663
CU1444   CU        0.788180    0.220799    0.448855     0.006663
CU1445   CU        0.791389    0.286646    0.389467     0.006663
CU1446   CU        0.832359    0.205692    0.387742     0.006663
AG1447   AG        0.810515    0.283749    0.417078     0.008887
CU1448   CU        0.047912    0.323331    0.407764     0.006663
AG1449   AG        0.082710    0.334648    0.379986     0.008887
CU1450   CU        0.101051    0.292689    0.388378     0.006663
AG1451   AG        0.098880    0.321955    0.422371     0.008887
CU1452   CU        0.124875    0.278154    0.419507     0.006663
CU1453   CU        0.130614    0.326638    0.375636     0.006663
AG1454   AG        0.197334    0.290451    0.361322     0.008887
CU1455   CU        0.175656    0.354575    0.419185     0.006663
AG1456   AG        0.220518    0.300729    0.408174     0.008887
AG1457   AG        0.202983    0.335977    0.380080     0.008887
AG1458   AG        0.240721    0.299431    0.371773     0.008887
AG1459   AG        0.249680    0.335486    0.406004     0.008887
CU1460   CU        0.271605    0.290113    0.414571     0.006663
AG1461   AG        0.282540    0.331950    0.369515     0.008887
CU1462   CU        0.296244    0.345205    0.420493     0.006663
AG1463   AG        0.297892    0.334504    0.411584     0.008887
AG1464   AG        0.338497    0.314668    0.423838     0.008887
CU1465   CU        0.376226    0.345714    0.368203     0.006663
CU1466   CU        0.380574    0.310526    0.383860     0.006663
AG1467   AG        0.385504    0.331995    0.422559     0.008887
CU1468   CU        0.420915    0.281024    0.441573     0.006663
AG1469   AG        0.424130    0.331004    0.386082     0.008887
AG1470   AG        0.465521    0.303130    0.384205     0.008887
CU1471   CU        0.458203    0.342192    0.421100     0.006663
AG1472   AG        0.516650    0.305231    0.407761     0.008887
AG1473   AG        0.476391    0.343238    0.374108     0.008887
AG1474   AG        0.545281    0.300589    0.373214     0.008887
AG1475   AG        0.499203    0.351469    0.418209     0.008887
CU1476   CU        0.559337    0.297077    0.423681     0.006663
CU1477   CU        0.569322    0.345897    0.380335     0.006663
AG1478   AG        0.592282    0.304735    0.357322     0.008887
CU1479   CU        0.615943    0.334762    0.391658     0.006663
CU1480   CU        0.628815    0.316740    0.404126     0.006663
AG1481   AG        0.648432    0.357374    0.372813     0.008887
CU1482   CU        0.672345    0.314162    0.346970     0.006663
AG1483   AG        0.699918    0.333881    0.430864     0.008887
CU1484   CU        0.696056    0.293921    0.443936     0.006663
AG1485   AG        0.697329    0.350672    0.383166     0.008887
CU1486   CU        0.751437    0.299719    0.366790     0.006663
AG1487   AG        0.751513    0.336667    0.435553     0.008887
CU1488   CU        0.777555    0.320829    0.398696     0.006663
AG1489   AG        0.778005    0.336647    0.386033     0.008887
AG1490   AG        0.827307    0.318665    0.387476     0.008887
CU1491   CU        0.808884    0.333132    0.426103     0.006663
CU1492   CU        0.848761    0.311412    0.438497     0.006663
CU1493   CU        0.851341    0.348463    0.402602     0.006663
AG1494   AG        0.061539    0.408405    0.430280     0.008887
AG1495   AG        0.074821    0.369673    0.414174     0.008887
AG1496   AG        0.071663    0.413939    0.382270     0.008887
CU1497   CU        0.099030    0.389341    0.349479     0.006663
AG1498   AG        0.106379    0.409376    0.413802     0.008887
AG1499   AG        0.125398    0.365434    0.413136     0.008887
AG1500   AG        0.134706    0.405004    0.378645     0.008887
AG1501   AG        0.166436    0.371093    0.379596     0.008887
CU1502   CU        0.158624    0.406011    0.418599     0.006663
CU1503   CU        0.191845    0.363870    0.418369     0.006663
AG1504   AG        0.207088    0.402992    0.378779     0.008887
CU1505   CU        0.259089    0.409592    0.401615     0.006663
CU1506   CU        0.266459    0.412923    0.389591     0.006663
CU1507   CU        0.288096    0.372885    0.397612     0.006663
CU1508   CU        0.314153    0.419490    0.371800     0.006663
CU1509   CU        0.302612    0.378401    0.387552     0.006663
CU1510   CU        0.303129    0.396973    0.412083     0.006663
AG1511   AG        0.336444    0.365381    0.417963     0.008887
CU1512   CU        0.387934    0.414521    0.370931     0.006663
CU1513   CU        0.392531    0.368838    0.389261     0.006663
CU1514   CU        0.402654    0.406007    0.415864     0.006663
CU1515   CU        0.445782    0.378768    0.393956     0.006663
CU1516   CU        0.404719    0.385826    0.397951     0.006663
AG1517   AG        0.488976    0.390359    0.393057     0.008887
CU1518   CU        0.448230    0.420299    0.400632     0.006663
AG1519   AG        0.475242    0.386883    0.434764     0.008887
AG1520   AG        0.487312    0.431292    0.367620     0.008887
CU1521   CU        0.530199    0.385320    0.376239     0.006663
AG1522   AG        0.520150    0.427733    0.407167     0.008887
CU1523   CU        0.568226    0.392542    0.399941     0.006663
AG1524   AG        0.567010    0.401110    0.398480     0.008887
AG1525   AG        0.606621    0.377268    0.383916     0.008887
AG1526   AG        0.590643    0.457393    0.412953     0.008887
AG1527   AG        0.647543    0.362670    0.451994     0.008887
CU1528   CU        0.633303    0.395199    0.353590     0.006663
CU1529   CU        0.685707    0.392189    0.375071     0.006663
CU1530   CU        0.649955    0.402946    0.437859     0.006663
AG1531   AG        0.722533    0.375431    0.423760     0.008887
CU1532   CU        0.707580    0.431058    0.360382     0.006663
AG1533   AG        0.735955    0.389148    0.377657     0.008887
CU1534   CU        0.719309    0.423159    0.405729     0.006663
AG1535   AG        0.778564    0.376665    0.410969     0.008887
AG1536   AG        0.773523    0.418990    0.376983     0.008887
CU1537   CU        0.809365    0.383588    0.374566     0.006663
AG1538   AG        0.805015    0.421034    0.416288     0.008887
CU1539   CU        0.845931    0.356682    0.416460     0.006663
CU1540   CU        0.850738    0.393810    0.387361     0.006663
CU1541   CU        0.884828    0.380459    0.410016     0.006663
AG1542   AG        0.033278    0.440610    0.404837     0.008887
AG1543   AG        0.043125    0.481607    0.421508     0.008887
AG1544   AG        0.077854    0.446982    0.416666     0.008887
AG1545   AG        0.063270    0.467056    0.377479     0.008887
AG1546   AG        0.109522    0.447447    0.377876     0.008887
AG1547   AG        0.084328    0.452631    0.414545     0.008887
AG1548   AG        0.132822    0.447471    0.428237     0.008887
CU1549   CU        0.156286    0.491722    0.382136     0.006663
CU1550   CU        0.182828    0.446926    0.377574     0.006663
AG1551   AG        0.168589    0.474945    0.422770     0.008887
AG1552   AG        0.171047    0.411126    0.415900     0.008887
AG1553   AG        0.199363    0.492977    0.386200     0.008887
AG1554   AG        0.228831    0.450309    0.381258     0.008887
CU1555   CU        0.266482    0.457332    0.404769     0.006663
CU1556   CU        0.275675    0.466993    0.423436     0.006663
AG1557   AG        0.261830    0.493481    0.379782     0.008887
AG1558   AG        0.306694    0.427894    0.381054     0.008887
CU1559   CU        0.322919    0.480415    0.448879     0.006663
AG1560   AG        0.332098    0.441953    0.422809     0.008887
CU1561   CU        0.346850    0.461527    0.379229     0.006663
AG1562   AG        0.401916    0.460283    0.375989     0.008887
AG1563   AG        0.379012    0.490737    0.412428     0.008887
AG1564   AG        0.418887    0.451826    0.419165     0.008887
CU1565   CU        0.417188    0.496637    0.396881     0.006663
AG1566   AG        0.433019    0.423344    0.384109     0.008887
AG1567   AG        0.459510    0.484729    0.424440     0.008887
AG1568   AG        0.469095    0.431255    0.413412     0.008887
AG1569   AG        0.494892    0.469853    0.395622     0.008887
CU1570   CU        0.525207    0.459990    0.365305     0.006663
CU1571   CU        0.506550    0.462789    0.439613     0.006663
CU1572   CU        0.580891    0.449523    0.405817     0.006663
CU1573   CU        0.560027    0.497088    0.404302     0.006663
AG1574   AG        0.610562    0.426955    0.386516     0.008887
AG1575   AG        0.617557    0.484412    0.437314     0.008887
AG1576   AG        0.638363    0.441972    0.428286     0.008887
AG1577   AG        0.633412    0.477653    0.391323     0.008887
CU1578   CU        0.661588    0.437736    0.387381     0.006663
AG1579   AG        0.664251    0.479686    0.423732     0.008887
CU1580   CU        0.687003    0.435418    0.421641     0.006663
AG1581   AG        0.701480    0.468655    0.391311     0.008887
AG1582   AG        0.746043    0.462269    0.371693     0.008887
AG1583   AG        0.741786    0.472889    0.423284     0.008887
AG1584   AG        0.792016    0.464446    0.394179     0.008887
CU1585   CU        0.753936    0.465584    0.374394     0.006663
AG1586   AG        0.825122    0.430414    0.376371     0.008887
AG1587   AG        0.816784    0.494535    0.418970     0.008887
AG1588   AG        0.838509    0.449749    0.415723     0.008887
AG1589   AG        0.835721    0.481315    0.375713     0.008887
CU1590   CU        0.875560    0.429838    0.392506     0.006663
CU1591   CU        0.904351    0.509448    0.418392     0.006663
AG1592   AG        0.087766    0.498651    0.404414     0.008887
CU1593   CU        0.055797    0.575245    0.383139     0.006663
AG1594   AG        0.122450    0.536009    0.396330     0.008887
AG1595   AG        0.104006    0.528052    0.442588     0.008887
AG1596   AG        0.148916    0.513104    0.430494     0.008887
AG1597   AG        0.145023    0.555435    0.354539     0.008887
CU1598   CU        0.171352    0.501074    0.386760     0.006663
AG1599   AG        0.166763    0.533957    0.391876     0.008887
AG1600   AG        0.199350    0.514385    0.421720     0.008887
CU1601   CU        0.220452    0.541442    0.382994     0.006663
CU1602   CU        0.227359    0.526919    0.377688     0.006663
AG1603   AG        0.232029    0.557064    0.428199     0.008887
AG1604   AG        0.298297    0.511668    0.410797     0.008887
AG1605   AG        0.267836    0.541911    0.394307     0.008887
AG1606   AG        0.325950    0.539902    0.383186     0.008887
AG1607   AG        0.308986    0.560516    0.416640     0.008887
AG1608   AG        0.344930    0.522221    0.425357     0.008887
AG1609   AG        0.344826    0.566136    0.379558     0.008887
AG1610   AG        0.374091    0.531318    0.391368     0.008887
CU1611   CU        0.387697    0.547096    0.400427     0.006663
AG1612   AG        0.421970    0.524834    0.413138     0.008887
AG1613   AG        0.416629    0.540473    0.367666     0.008887
AG1614   AG        0.461783    0.522277    0.391106     0.008887
AG1615   AG        0.471283    0.551138    0.428806     0.008887
AG1616   AG        0.500196    0.511225    0.422515     0.008887
AG1617   AG        0.491134    0.563826    0.390246     0.008887
CU1618   CU        0.529383    0.534027    0.384236     0.006663
AG1619   AG        0.522351    0.551906    0.425842     0.008887
CU1620   CU        0.580533    0.499133    0.420784     0.006663
CU1621   CU        0.571517    0.573239    0.373580     0.006663
CU1622   CU        0.602672    0.489140    0.385008     0.006663
CU1623   CU        0.591809    0.568471    0.425076     0.006663
AG1624   AG        0.627375    0.516530    0.410157     0.008887
AG1625   AG        0.616712    0.557206    0.395164     0.008887
AG1626   AG        0.678060    0.513760    0.390092     0.008887
AG1627   AG        0.668612    0.554038    0.406905     0.008887
CU1628   CU        0.695265    0.518547    0.419074     0.006663
AG1629   AG        0.700856    0.553889    0.373444     0.008887
AG1630   AG        0.731473    0.509113    0.389720     0.008887
CU1631   CU        0.751681    0.552236    0.429966     0.006663
AG1632   AG        0.775245    0.508713    0.417152     0.008887
AG1633   AG        0.777426    0.550618    0.392282     0.008887
AG1634   AG        0.778958    0.505607    0.364876     0.008887
AG1635   AG        0.808292    0.542618    0.429011     0.008887
CU1636   CU        0.854573    0.557174    0.409839     0.006663
AG1637   AG        0.822831    0.527741    0.387443     0.008887
CU1638   CU        0.071217    0.597149    0.428599     0.006663
AG1639   AG        0.103835    0.583615    0.395344     0.008887
CU1640   CU        0.092870    0.631076    0.409415     0.006663
AG1641   AG        0.125734    0.604850    0.435280     0.008887
CU1642   CU        0.152307    0.643603    0.350626     0.006663
AG1643   AG        0.155138    0.579995    0.402340     0.008887
AG1644   AG        0.170966    0.626140    0.420607     0.008887
AG1645   AG        0.205449    0.594506    0.414367     0.008887
CU1646   CU        0.211397    0.627700    0.385847     0.006663
CU1647   CU        0.230321    0.611901    0.342637     0.006663
AG1648   AG        0.246620    0.626107    0.421661     0.008887
AG1649   AG        0.272316    0.587839    0.413453     0.008887
AG1650   AG        0.268013    0.619676    0.374596     0.008887
CU1651   CU        0.308046    0.588325    0.383717     0.006663
CU1652   CU        0.299903    0.634981    0.407581     0.006663
CU1653   CU        0.357073    0.621796    0.410970     0.006663
CU1654   CU        0.352078    0.616774    0.385155     0.006663
CU1655   CU        0.385469    0.583054    0.355793     0.006663
CU1656   CU        0.398043    0.640298    0.392641     0.006663
CU1657   CU        0.420485    0.572468    0.419849     0.006663
CU1658   CU        0.433456    0.614041    0.380378     0.006663
AG1659   AG        0.473639    0.607098    0.371846     0.008887
CU1660   CU        0.444682    0.643702    0.396048     0.006663
AG1661   AG        0.501416    0.592594    0.424180     0.008887
CU1662   CU        0.511038    0.647947    0.366578     0.006663
AG1663   AG        0.518522    0.596734    0.376022     0.008887
AG1664   AG        0.531681    0.628622    0.418344     0.008887
AG1665   AG        0.550490    0.585536    0.409632     0.008887
AG1666   AG        0.555347    0.622903    0.377225     0.008887
AG1667   AG        0.593617    0.593957    0.384099     0.008887
AG1668   AG        0.626077    0.603751    0.420678     0.008887
CU1669   CU        0.637452    0.591783    0.417073     0.006663
AG1670   AG        0.635379    0.620675    0.380901     0.008887
AG1671   AG        0.673822    0.595281    0.373408     0.008887
AG1672   AG        0.677286    0.618715    0.409666     0.008887
CU1673   CU        0.689157    0.616710    0.413780     0.006663
AG1674   AG        0.714226    0.632020    0.372692     0.008887
CU1675   CU        0.776328    0.583522    0.363893     0.006663
AG1676   AG        0.733166    0.624993    0.407933     0.008887
AG1677   AG        0.780682    0.575110    0.432426     0.008887
CU1678   CU        0.776211    0.605747    0.393607     0.006663
AG1679   AG        0.813207    0.579353    0.390078     0.008887
CU1680   CU        0.831433    0.635526    0.425445     0.006663
CU1681   CU        0.832224    0.582764    0.439180     0.006663
CU1682   CU        0.113169    0.667032    0.385191     0.006663
AG1683   AG        0.131050    0.650102    0.427129     0.008887
CU1684   CU        0.150072    0.693461    0.377811     0.006663
AG1685   AG        0.168285    0.661317    0.389814     0.008887
AG1686   AG        0.184485    0.696166    0.412017     0.008887
AG1687   AG        0.209353    0.659808    0.418091     0.008887
AG1688   AG        0.212978    0.686318    0.374952     0.008887
AG1689   AG        0.247832    0.658441    0.385258     0.008887
AG1690   AG        0.236154    0.700691    0.416604     0.008887
AG1691   AG        0.270113    0.670075    0.427639     0.008887
AG1692   AG        0.272065    0.697610    0.389135     0.008887
CU1693   CU        0.321446    0.640783    0.360028     0.006663
CU1694   CU        0.305004    0.695285    0.424328     0.006663
CU1695   CU        0.356838    0.665759    0.404557     0.006663
CU1696   CU        0.326059    0.660702    0.372812     0.006663
CU1697   CU        0.367379    0.697807    0.387598     0.006663
CU1698   CU        0.385269    0.689928    0.430644     0.006663
CU1699   CU        0.421694    0.659482    0.426416     0.006663
CU1700   CU        0.457110    0.733435    0.377102     0.006663
CU1701   CU        0.460811    0.648118    0.391844     0.006663
AG1702   AG        0.461744    0.686149    0.419549     0.008887
CU1703   CU        0.499382    0.640727    0.392251     0.006663
AG1704   AG        0.489941    0.690738    0.392674     0.008887
AG1705   AG        0.545788    0.661050    0.396569     0.008887
AG1706   AG        0.533516    0.707464    0.401087     0.008887
CU1707   CU        0.561982    0.664998    0.406652     0.006663
CU1708   CU        0.570683    0.698279    0.379237     0.006663
CU1709   CU        0.600633    0.654208    0.381775     0.006663
CU1710   CU        0.605327    0.711259    0.407690     0.006663
CU1711   CU        0.648160    0.650110    0.420521     0.006663
AG1712   AG        0.643391    0.704084    0.383783     0.008887
CU1713   CU        0.668274    0.650250    0.368710     0.006663
AG1714   AG        0.669232    0.700317    0.429877     0.008887
AG1715   AG        0.704901    0.663721    0.414148     0.008887
AG1716   AG        0.694194    0.688874    0.370935     0.008887
CU1717   CU        0.697671    0.662576    0.409235     0.006663
AG1718   AG        0.742463    0.667609    0.391651     0.008887
CU1719   CU        0.789444    0.656168    0.397098     0.006663
AG1720   AG        0.780485    0.702044    0.380989     0.008887
CU1721   CU        0.819192    0.669750    0.368054     0.006663
CU1722   CU        0.127315    0.739853    0.375723     0.006663
CU1723   CU        0.196848    0.701991    0.387535     0.006663
CU1724   CU        0.201734    0.782296    0.425099     0.006663
AG1725   AG        0.209912    0.736274    0.420269     0.008887
CU1726   CU        0.209369    0.795709    0.396615     0.006663
AG1727   AG        0.238971    0.735236    0.380116     0.008887
AG1728   AG        0.242553    0.764871    0.415774     0.008887
AG1729   AG        0.258449    0.720584    0.426501     0.008887
CU1730   CU        0.276469    0.774230    0.374017     0.006663
CU1731   CU        0.292712    0.738070    0.373703     0.006663
CU1732   CU        0.306851    0.776429    0.410160     0.006663
CU1733   CU        0.358950    0.719948    0.405698     0.006663
CU1734   CU        0.336282    0.765820    0.375858     0.006663
CU1735   CU        0.373961    0.732879    0.360555     0.006663
AG1736   AG        0.409667    0.792627    0.402916     0.008887
AG1737   AG        0.428870    0.726234    0.422767     0.008887
CU1738   CU        0.441639    0.765593    0.392700     0.006663
CU1739   CU        0.469458    0.727812    0.388560     0.006663
AG1740   AG        0.455143    0.769662    0.415985     0.008887
AG1741   AG        0.505324    0.713034    0.437067     0.008887
AG1742   AG        0.482451    0.770894    0.367483     0.008887
CU1743   CU        0.523188    0.740216    0.372684     0.006663
CU1744   CU        0.560125    0.755124    0.436312     0.006663
CU1745   CU        0.560739    0.720959    0.435587     0.006663
CU1746   CU        0.557272    0.756821    0.393812     0.006663
CU1747   CU        0.598811    0.721798    0.398643     0.006663
AG1748   AG        0.601894    0.764116    0.417129     0.008887
AG1749   AG        0.646917    0.737724    0.416708     0.008887
AG1750   AG        0.651645    0.783718    0.401482     0.008887
AG1751   AG        0.683950    0.730378    0.394014     0.008887
CU1752   CU        0.685763    0.763021    0.431883     0.006663
CU1753   CU        0.705425    0.738508    0.439484     0.006663
CU1754   CU        0.694623    0.779690    0.370755     0.006663
CU1755   CU        0.730472    0.722249    0.383203     0.006663
CU1756   CU        0.722657    0.763714    0.402815     0.006663
CU1757   CU        0.782135    0.760976    0.441111     0.006663
CU1758   CU        0.248355    0.787256    0.367659     0.006663
CU1759   CU        0.270157    0.802084    0.411568     0.006663
CU1760   CU        0.312502    0.812373    0.383556     0.006663
AG1761   AG        0.295689    0.818079    0.441617     0.008887
CU1762   CU        0.321704    0.781423    0.420293     0.006663
AG1763   AG        0.360684    0.804444    0.397943     0.008887
AG1764   AG        0.394006    0.820303    0.371371     0.008887
AG1765   AG        0.392305    0.837775    0.420515     0.008887
CU1766   CU        0.425425    0.802131    0.414028     0.006663
AG1767   AG        0.430395    0.841512    0.396782     0.008887
AG1768   AG        0.465972    0.807607    0.385629     0.008887
AG1769   AG        0.472730    0.842320    0.418022     0.008887
AG1770   AG        0.485682    0.805285    0.396607     0.008887
CU1771   CU        0.496206    0.836719    0.369109     0.006663
AG1772   AG        0.529876    0.794339    0.377811     0.008887
CU1773   CU        0.522728    0.830032    0.412715     0.006663
AG1774   AG        0.564780    0.797228    0.414859     0.008887
CU1775   CU        0.554834    0.839585    0.384474     0.006663
AG1776   AG        0.610308    0.804022    0.400043     0.008887
AG1777   AG        0.590902    0.841550    0.419916     0.008887
AG1778   AG        0.626600    0.807945    0.403248     0.008887
CU1779   CU        0.657085    0.817070    0.371077     0.006663
AG1780   AG        0.430273    0.865106    0.438871     0.008887
CU1781   CU        0.473311    0.848996    0.373058     0.006663
CU1782   CU        0.473238    0.836233    0.430333     0.006663
AG1783   AG        0.294497    0.078129    0.444633     0.008887
CU1784   CU        0.299580    0.045565    0.485904     0.006663
AG1785   AG        0.341750    0.062529    0.460677     0.008887
CU1786   CU        0.411539    0.036745    0.438751     0.006663
CU1787   CU        0.402098    0.046115    0.471699     0.006663
CU1788   CU        0.424764    0.009532    0.478069     0.006663
CU1789   CU        0.407353    0.047213    0.460862     0.006663
AG1790   AG        0.456134    0.039917    0.460481     0.008887
CU1791   CU        0.454269    0.047329    0.484730     0.006663
CU1792   CU        0.473656    0.001689    0.478669     0.006663
CU1793   CU        0.501725    0.043553    0.466681     0.006663
CU1794   CU        0.511210    0.000714    0.443989     0.006663
AG1795   AG        0.525039    0.072339    0.497673     0.008887
AG1796   AG        0.566199    0.055410    0.451387     0.008887
CU1797   CU        0.604560    0.061973    0.479390     0.006663
CU1798   CU        0.641459    0.074516    0.458719     0.006663
CU1799   CU        0.157836    0.112594    0.496615     0.006663
CU1800   CU        0.202563    0.123453    0.462801     0.006663
CU1801   CU        0.243968    0.083715    0.439403     0.006663
AG1802   AG        0.244448    0.125336    0.490877     0.008887
AG1803   AG        0.268013    0.080388    0.482118     0.008887
AG1804   AG        0.272582    0.120432    0.449074     0.008887
CU1805   CU        0.345084    0.096395    0.433416     0.006663
AG1806   AG        0.296144    0.119215    0.489616     0.008887
CU1807   CU        0.340160    0.115148    0.514691     0.006663
AG1808   AG        0.358768    0.102866    0.439188     0.008887
AG1809   AG        0.399970    0.088882    0.441332     0.008887
AG1810   AG        0.401999    0.129969    0.472593     0.008887
AG1811   AG        0.427490    0.083484    0.478412     0.008887
CU1812   CU        0.423085    0.125318    0.423557     0.006663
CU1813   CU        0.481463    0.079541    0.471155     0.006663
AG1814   AG        0.461016    0.121731    0.501099     0.008887
CU1815   CU        0.473952    0.082908    0.485512     0.006663
CU1816   CU        0.519507    0.144068    0.448895     0.006663
AG1817   AG        0.523761    0.085103    0.450016     0.008887
AG1818   AG        0.536603    0.122739    0.482446     0.008887
AG1819   AG        0.568660    0.093899    0.503112     0.008887
AG1820   AG        0.568098    0.110749    0.452622     0.008887
AG1821   AG        0.601740    0.081768    0.432928     0.008887
AG1822   AG        0.604180    0.132411    0.493285     0.008887
CU1823   CU        0.637247    0.095353    0.495747     0.006663
AG1824   AG        0.636107    0.127217    0.456868     0.008887
CU1825   CU        0.648213    0.084579    0.454313     0.006663
AG1826   AG        0.658058    0.134421    0.507519     0.008887
CU1827   CU        0.712649    0.119799    0.443977     0.006663
CU1828   CU        0.735845    0.108840    0.503566     0.006663
CU1829   CU        0.136298    0.148885    0.471151     0.006663
CU1830   CU        0.139469    0.192527    0.447484     0.006663
CU1831   CU        0.178106    0.160558    0.458906     0.006663
AG1832   AG        0.175382    0.199328    0.484797     0.008887
AG1833   AG        0.213141    0.165324    0.490749     0.008887
AG1834   AG        0.212994    0.185243    0.450395     0.008887
AG1835   AG        0.237752    0.154807    0.447602     0.008887
AG1836   AG        0.246201    0.193085    0.485833     0.008887
CU1837   CU        0.260822    0.175838    0.490049     0.006663
CU1838   CU        0.263183    0.171747    0.439509     0.006663
AG1839   AG        0.308580    0.157086    0.456771     0.008887
CU1840   CU        0.311287    0.182435    0.498400     0.006663
AG1841   AG        0.352883    0.143017    0.473012     0.008887
AG1842   AG        0.345038    0.190607    0.454005     0.008887
AG1843   AG        0.400686    0.170866    0.443202     0.008887
AG1844   AG        0.378557    0.184981    0.489480     0.008887
AG1845   AG        0.428141    0.163345    0.489181     0.008887
AG1846   AG        0.441073    0.192301    0.446971     0.008887
AG1847   AG        0.440128    0.148890    0.463212     0.008887
CU1848   CU        0.456977    0.172105    0.506158     0.006663
AG1849   AG        0.504091    0.144395    0.509429     0.008887
CU1850   CU        0.485905    0.199617    0.441484     0.006663
CU1851   CU        0.514119    0.161212    0.458612     0.006663
CU1852   CU        0.500168    0.191027    0.493617     0.006663
AG1853   AG        0.544719    0.166813    0.490523     0.008887
AG1854   AG        0.573867    0.213813    0.432003     0.008887
CU1855   CU        0.591216    0.132828    0.442582     0.006663
AG1856   AG        0.586120    0.177515    0.512119     0.008887
AG1857   AG        0.626653    0.160968    0.489611     0.008887
AG1858   AG        0.626889    0.214642    0.434558     0.008887
AG1859   AG        0.677507    0.149659    0.446516     0.008887
AG1860   AG        0.674485    0.177146    0.487642     0.008887
AG1861   AG        0.722635    0.180348    0.493059     0.008887
AG1862   AG        0.704888    0.207453    0.458504     0.008887
CU1863   CU        0.752207    0.144082    0.469505     0.006663
CU1864   CU        0.749964    0.212162    0.485116     0.006663
CU1865   CU        0.763895    0.174940    0.506549     0.006663
AG1866   AG        0.764048    0.174824    0.460799     0.008887
CU1867   CU        0.093288    0.273909    0.449815     0.006663
CU1868   CU        0.095944    0.218915    0.472150     0.006663
AG1869   AG        0.103378    0.268984    0.498514     0.008887
CU1870   CU        0.133932    0.229553    0.501828     0.006663
CU1871   CU        0.136442    0.270784    0.468432     0.006663
CU1872   CU        0.171051    0.244119    0.476504     0.006663
AG1873   AG        0.180122    0.252723    0.479650     0.008887
AG1874   AG        0.212737    0.221150    0.476104     0.008887
AG1875   AG        0.197741    0.276039    0.444861     0.008887
CU1876   CU        0.216457    0.231440    0.461569     0.006663
AG1877   AG        0.227474    0.270406    0.486891     0.008887
CU1878   CU        0.259385    0.240706    0.482047     0.006663
CU1879   CU        0.280968    0.275869    0.465591     0.006663
AG1880   AG        0.319727    0.233511    0.443687     0.008887
CU1881   CU        0.312737    0.267361    0.509887     0.006663
AG1882   AG        0.354950    0.228512    0.478415     0.008887
AG1883   AG        0.336643    0.275016    0.460895     0.008887
AG1884   AG        0.401008    0.217813    0.462698     0.008887
CU1885   CU        0.357731    0.273103    0.502054     0.006663
AG1886   AG        0.437582    0.248798    0.478585     0.008887
CU1887   CU        0.435657    0.273765    0.451451     0.006663
AG1888   AG        0.472363    0.244536    0.437079     0.008887
AG1889   AG        0.479065    0.275597    0.481032     0.008887
CU1890   CU        0.506302    0.230135    0.471710     0.006663
AG1891   AG        0.510243    0.265116    0.439564     0.008887
CU1892   CU        0.525948    0.234280    0.434039     0.006663
CU1893   CU        0.519032    0.252558    0.480507     0.006663
CU1894   CU        0.541388    0.213855    0.512290     0.006663
AG1895   AG        0.559977    0.260983    0.455919     0.008887
CU1896   CU        0.606488    0.224055    0.471519     0.006663
CU1897   CU        0.594385    0.266620    0.485272     0.006663
CU1898   CU        0.641328    0.251220    0.503538     0.006663
AG1899   AG        0.639332    0.262625    0.459267     0.008887
AG1900   AG        0.655906    0.218975    0.481220     0.008887
AG1901   AG        0.669765    0.265419    0.496027     0.008887
AG1902   AG        0.707916    0.232239    0.495053     0.008887
CU1903   CU        0.723732    0.290045    0.444491     0.006663
AG1904   AG        0.735937    0.236004    0.444567     0.008887
AG1905   AG        0.746920    0.263086    0.487065     0.008887
AG1906   AG        0.756954    0.218870    0.482120     0.008887
AG1907   AG        0.778626    0.262575    0.450753     0.008887
CU1908   CU        0.799528    0.215805    0.464959     0.006663
AG1909   AG        0.795208    0.256590    0.489814     0.008887
CU1910   CU        0.822773    0.258024    0.449702     0.006663
CU1911   CU        0.066440    0.330137    0.494538     0.006663
CU1912   CU        0.081881    0.339651    0.460100     0.006663
AG1913   AG        0.108292    0.308377    0.473685     0.008887
AG1914   AG        0.115900    0.346615    0.496107     0.008887
CU1915   CU        0.157946    0.326872    0.488580     0.006663
AG1916   AG        0.136671    0.339468    0.453239     0.008887
AG1917   AG        0.153498    0.293067    0.463579     0.008887
AG1918   AG        0.163865    0.334004    0.491384     0.008887
AG1919   AG        0.203500    0.310441    0.481885     0.008887
AG1920   AG        0.184394    0.324002    0.444395     0.008887
AG1921   AG        0.237201    0.301862    0.448367     0.008887
AG1922   AG        0.235301    0.340902    0.481036     0.008887
CU1923   CU        0.265792    0.308621    0.484543     0.006663
CU1924   CU        0.265520    0.341572    0.446792     0.006663
AG1925   AG        0.302111    0.310670    0.451605     0.008887
CU1926   CU        0.333438    0.348061    0.459582     0.006663
CU1927   CU        0.345438    0.278934    0.445808     0.006663
CU1928   CU        0.351040    0.331330    0.449320     0.006663
CU1929   CU        0.366352    0.309898    0.471258     0.006663
CU1930   CU        0.399710    0.324051    0.503567     0.006663
CU1931   CU        0.414789    0.294415    0.487476     0.006663
CU1932   CU        0.445846    0.313892    0.462303     0.006663
CU1933   CU        0.465533    0.281794    0.463384     0.006663
AG1934   AG        0.445198    0.343837    0.495666     0.008887
AG1935   AG        0.491335    0.318835    0.488501     0.008887
CU1936   CU        0.502491    0.348293    0.454950     0.006663
AG1937   AG        0.527619    0.297754    0.461736     0.008887
CU1938   CU        0.532639    0.335214    0.489568     0.006663
CU1939   CU        0.553413    0.302678    0.510255     0.006663
CU1940   CU        0.578567    0.367481    0.470478     0.006663
CU1941   CU        0.604216    0.296512    0.447652     0.006663
CU1942   CU        0.599734    0.367807    0.472840     0.006663
AG1943   AG        0.630492    0.297050    0.494123     0.008887
CU1944   CU        0.616318    0.330904    0.471408     0.006663
AG1945   AG        0.677226    0.341329    0.483466     0.008887
CU1946   CU        0.669497    0.320936    0.473211     0.006663
AG1947   AG        0.710276    0.292828    0.488146     0.008887
CU1948   CU        0.718178    0.347785    0.469311     0.006663
CU1949   CU        0.739566    0.289124    0.448102     0.006663
AG1950   AG        0.728568    0.332969    0.476298     0.008887
AG1951   AG        0.772729    0.307000    0.486129     0.008887
AG1952   AG        0.800747    0.335527    0.429778     0.008887
AG1953   AG        0.813321    0.298716    0.464766     0.008887
AG1954   AG        0.807949    0.341214    0.478046     0.008887
CU1955   CU        0.852560    0.324562    0.487898     0.006663
CU1956   CU        0.845190    0.347519    0.446032     0.006663
CU1957   CU        0.049730    0.368759    0.459124     0.006663
CU1958   CU        0.039976    0.382997    0.510308     0.006663
AG1959   AG        0.081249    0.371809    0.502101     0.008887
AG1960   AG        0.058481    0.412657    0.479189     0.008887
AG1961   AG        0.096421    0.381075    0.455157     0.008887
AG1962   AG        0.105544    0.407933    0.492521     0.008887
AG1963   AG        0.131726    0.369418    0.489980     0.008887
AG1964   AG        0.134994    0.409169    0.456439     0.008887
CU1965   CU        0.174621    0.363166    0.424810     0.006663
AG1966   AG        0.148332    0.416454    0.505710     0.008887
AG1967   AG        0.195878    0.360450    0.470925     0.008887
CU1968   CU        0.236354    0.390170    0.461589     0.006663
CU1969   CU        0.234653    0.372127    0.442875     0.006663
CU1970   CU        0.221945    0.402325    0.477751     0.006663
CU1971   CU        0.271903    0.364767    0.482621     0.006663
CU1972   CU        0.269993    0.411461    0.478963     0.006663
CU1973   CU        0.309123    0.354899    0.458737     0.006663
CU1974   CU        0.307078    0.434751    0.504543     0.006663
CU1975   CU        0.369860    0.368996    0.488102     0.006663
AG1976   AG        0.334412    0.398951    0.448728     0.008887
AG1977   AG        0.376936    0.374949    0.438676     0.008887
CU1978   CU        0.407295    0.393601    0.468203     0.006663
CU1979   CU        0.435557    0.367114    0.491203     0.006663
CU1980   CU        0.404663    0.406793    0.472530     0.006663
AG1981   AG        0.477428    0.353510    0.462879     0.008887
AG1982   AG        0.470047    0.400861    0.476661     0.008887
AG1983   AG        0.482725    0.364563    0.507105     0.008887
AG1984   AG        0.498720    0.393324    0.438126     0.008887
CU1985   CU        0.510940    0.371688    0.463381     0.006663
AG1986   AG        0.540859    0.422819    0.507845     0.008887
CU1987   CU        0.580495    0.360820    0.502219     0.006663
CU1988   CU        0.553072    0.435394    0.437712     0.006663
CU1989   CU        0.607249    0.372841    0.463704     0.006663
AG1990   AG        0.583248    0.408947    0.486158     0.008887
AG1991   AG        0.633233    0.362253    0.498562     0.008887
AG1992   AG        0.627116    0.410702    0.466840     0.008887
CU1993   CU        0.668783    0.389486    0.475255     0.006663
AG1994   AG        0.669461    0.397740    0.485141     0.008887
AG1995   AG        0.708156    0.378858    0.499109     0.008887
AG1996   AG        0.713714    0.410848    0.461258     0.008887
AG1997   AG        0.749351    0.376932    0.465908     0.008887
AG1998   AG        0.749440    0.407937    0.500349     0.008887
AG1999   AG        0.791372    0.380089    0.497215     0.008887
CU2000   CU        0.777658    0.406982    0.456155     0.006663
AG2001   AG        0.813360    0.379751    0.448757     0.008887
AG2002   AG        0.783829    0.428874    0.485858     0.008887
AG2003   AG        0.842618    0.377151    0.488305     0.008887
AG2004   AG        0.830611    0.427046    0.461613     0.008887
CU2005   CU        0.854377    0.393340    0.441841     0.006663
CU2006   CU        0.884228    0.406491    0.479616     0.006663
CU2007   CU        0.000714    0.471920    0.430006     0.006663
AG2008   AG        0.037977    0.488902    0.471526     0.008887
CU2009   CU        0.022070    0.447681    0.491594     0.006663
AG2010   AG        0.082887    0.482923    0.453607     0.008887
AG2011   AG        0.092806    0.432374    0.455208     0.008887
AG2012   AG        0.115121    0.487195    0.492865     0.008887
AG2013   AG        0.129576    0.449344    0.477542     0.008887
AG2014   AG        0.109111    0.481426    0.444697     0.008887
AG2015   AG        0.170585    0.435525    0.459414     0.008887
AG2016   AG        0.165673    0.464380    0.503420     0.008887
CU2017   CU        0.206033    0.441774    0.494839     0.006663
AG2018   AG        0.191968    0.486663    0.466371     0.008887
CU2019   CU        0.242427    0.477923    0.454155     0.006663
AG2020   AG        0.230511    0.477308    0.495486     0.008887
CU2021   CU        0.262784    0.437789    0.482459     0.006663
CU2022   CU        0.265644    0.462889    0.467675     0.006663
AG2023   AG        0.304362    0.441803    0.457585     0.008887
AG2024   AG        0.308761    0.485743    0.484236     0.008887
CU2025   CU        0.347112    0.451392    0.470605     0.006663
CU2026   CU        0.322471    0.482589    0.438800     0.006663
CU2027   CU        0.377672    0.424493    0.438496     0.006663
CU2028   CU        0.386086    0.498329    0.490500     0.006663
CU2029   CU        0.423521    0.460072    0.495434     0.006663
AG2030   AG        0.414431    0.491381    0.447961     0.008887
AG2031   AG        0.461613    0.435102    0.441631     0.008887
AG2032   AG        0.471042    0.452552    0.481317     0.008887
CU2033   CU        0.496077    0.417110    0.510598     0.006663
CU2034   CU        0.499668    0.472295    0.450913     0.006663
CU2035   CU        0.497944    0.461336    0.440727     0.006663
AG2036   AG        0.519690    0.461649    0.493773     0.008887
AG2037   AG        0.568939    0.450117    0.491659     0.008887
CU2038   CU        0.541179    0.475349    0.467225     0.006663
AG2039   AG        0.598784    0.444214    0.454189     0.008887
AG2040   AG        0.589684    0.490293    0.473279     0.008887
AG2041   AG        0.630152    0.467011    0.479865     0.008887
CU2042   CU        0.646694    0.459907    0.466019     0.006663
AG2043   AG        0.671239    0.440061    0.466500     0.008887
CU2044   CU        0.681544    0.481828    0.486440     0.006663
AG2045   AG        0.704229    0.428368    0.506042     0.008887
CU2046   CU        0.725188    0.494982    0.470728     0.006663
AG2047   AG        0.746746    0.448931    0.461934     0.008887
CU2048   CU        0.732593    0.497037    0.481744     0.006663
CU2049   CU        0.785573    0.415008    0.467675     0.006663
AG2050   AG        0.774442    0.478625    0.479000     0.008887
AG2051   AG        0.801263    0.459259    0.445132     0.008887
AG2052   AG        0.819667    0.466460    0.492704     0.008887
CU2053   CU        0.864084    0.451494    0.487159     0.006663
AG2054   AG        0.850909    0.474123    0.452345     0.008887
CU2055   CU        0.877105    0.430862    0.441960     0.006663
CU2056   CU        0.851800    0.502798    0.493526     0.006663
CU2057   CU        0.013553    0.519682    0.444648     0.006663
AG2058   AG        0.080754    0.514958    0.490760     0.008887
AG2059   AG        0.059997    0.520703    0.444892     0.008887
CU2060   CU        0.107131    0.523978    0.460943     0.006663
CU2061   CU        0.089647    0.558484    0.502147     0.006663
AG2062   AG        0.130263    0.536735    0.478436     0.008887
AG2063   AG        0.140525    0.557514    0.441893     0.008887
AG2064   AG        0.181528    0.535033    0.460264     0.008887
CU2065   CU        0.174513    0.554090    0.486601     0.006663
AG2066   AG        0.210611    0.521234    0.498652     0.008887
AG2067   AG        0.227942    0.519330    0.457278     0.008887
CU2068   CU        0.237358    0.496907    0.451634     0.006663
AG2069   AG        0.200888    0.557620    0.528219     0.008887
AG2070   AG        0.264259    0.512638    0.485991     0.008887
AG2071   AG        0.270909    0.543865    0.442008     0.008887
AG2072   AG        0.307760    0.525745    0.458856     0.008887
AG2073   AG        0.298578    0.539635    0.483972     0.008887
CU2074   CU        0.348902    0.527779    0.480020     0.006663
AG2075   AG        0.342342    0.557098    0.458828     0.008887
AG2076   AG        0.383218    0.529860    0.446401     0.008887
AG2077   AG        0.386019    0.554590    0.482649     0.008887
AG2078   AG        0.419490    0.526191    0.484583     0.008887
AG2079   AG        0.424625    0.556167    0.449239     0.008887
CU2080   CU        0.462461    0.539533    0.470825     0.006663
AG2081   AG        0.465403    0.547657    0.479646     0.008887
AG2082   AG        0.503941    0.512615    0.487629     0.008887
AG2083   AG        0.507825    0.553980    0.454933     0.008887
AG2084   AG        0.536221    0.508660    0.448207     0.008887
AG2085   AG        0.517628    0.553342    0.472120     0.008887
CU2086   CU        0.571862    0.529537    0.494567     0.006663
AG2087   AG        0.559572    0.554167    0.451599     0.008887
CU2088   CU        0.601906    0.524390    0.422771     0.006663
AG2089   AG        0.596556    0.562143    0.481697     0.008887
CU2090   CU        0.628307    0.521966    0.480391     0.006663
AG2091   AG        0.630223    0.556033    0.444725     0.008887
AG2092   AG        0.642378    0.512082    0.461165     0.008887
AG2093   AG        0.662582    0.556703    0.483824     0.008887
CU2094   CU        0.689618    0.518444    0.502455     0.006663
CU2095   CU        0.708978    0.553113    0.445828     0.006663
CU2096   CU        0.745644    0.520848    0.466094     0.006663
AG2097   AG        0.748846    0.569017    0.471965     0.008887
AG2098   AG        0.768786    0.526727    0.493827     0.008887
AG2099   AG        0.801599    0.553876    0.470912     0.008887
AG2100   AG        0.806529    0.502304    0.461303     0.008887
CU2101   CU        0.818062    0.551638    0.472439     0.006663
AG2102   AG        0.845745    0.509752    0.487032     0.008887
CU2103   CU        0.826884    0.573984    0.478396     0.006663
CU2104   CU        0.903942    0.527434    0.461464     0.006663
CU2105   CU        0.052572    0.580942    0.474203     0.006663
CU2106   CU        0.042776    0.628912    0.467923     0.006663
AG2107   AG        0.098974    0.570618    0.459477     0.008887
CU2108   CU        0.088307    0.611182    0.486764     0.006663
AG2109   AG        0.130887    0.590950    0.481269     0.008887
CU2110   CU        0.155038    0.627720    0.469034     0.006663
CU2111   CU        0.175287    0.562758    0.481080     0.006663
CU2112   CU        0.174661    0.616528    0.484172     0.006663
CU2113   CU        0.220156    0.561479    0.481961     0.006663
AG2114   AG        0.206706    0.632351    0.452477     0.008887
AG2115   AG        0.247955    0.598815    0.457909     0.008887
CU2116   CU        0.266986    0.614637    0.495105     0.006663
AG2117   AG        0.281131    0.598764    0.496984     0.008887
AG2118   AG        0.286756    0.625478    0.449690     0.008887
AG2119   AG        0.295897    0.578065    0.458748     0.008887
AG2120   AG        0.319854    0.625222    0.481121     0.008887
AG2121   AG        0.349976    0.583798    0.493999     0.008887
CU2122   CU        0.345462    0.654072    0.450746     0.006663
CU2123   CU        0.387748    0.564231    0.475868     0.006663
CU2124   CU        0.367845    0.630507    0.491068     0.006663
AG2125   AG        0.428345    0.576076    0.491637     0.008887
CU2126   CU        0.423050    0.609667    0.444100     0.006663
AG2127   AG        0.463075    0.590882    0.457807     0.008887
CU2128   CU        0.454147    0.607291    0.507296     0.006663
AG2129   AG        0.501614    0.589799    0.488967     0.008887
CU2130   CU        0.492136    0.637290    0.444411     0.006663
CU2131   CU        0.536287    0.595170    0.459737     0.006663
AG2132   AG        0.535163    0.595782    0.450961     0.008887
AG2133   AG        0.555804    0.573588    0.493579     0.008887
CU2134   CU        0.584126    0.598508    0.443306     0.006663
CU2135   CU        0.583347    0.597968    0.453514     0.006663
AG2136   AG        0.601217    0.637484    0.499705     0.008887
AG2137   AG        0.627274    0.601585    0.470968     0.008887
CU2138   CU        0.673491    0.595185    0.453299     0.006663
CU2139   CU        0.668074    0.583356    0.447812     0.006663
AG2140   AG        0.676116    0.623716    0.488381     0.008887
AG2141   AG        0.711310    0.595912    0.489173     0.008887
AG2142   AG        0.709271    0.632539    0.451948     0.008887
AG2143   AG        0.746604    0.604082    0.445230     0.008887
AG2144   AG        0.747414    0.624564    0.486132     0.008887
AG2145   AG        0.789691    0.596473    0.477401     0.008887
AG2146   AG        0.783250    0.638222    0.449132     0.008887
AG2147   AG        0.823493    0.589220    0.436881     0.008887
CU2148   CU        0.848928    0.645494    0.485165     0.006663
CU2149   CU        0.839158    0.553633    0.516228     0.006663
CU2150   CU        0.837676    0.631884    0.445387     0.006663
CU2151   CU        0.093528    0.674899    0.434277     0.006663
CU2152   CU        0.155422    0.660315    0.500156     0.006663
CU2153   CU        0.139466    0.696332    0.425065     0.006663
AG2154   AG        0.171338    0.668701    0.452770     0.008887
AG2155   AG        0.169316    0.702420    0.489446     0.008887
AG2156   AG        0.243910    0.669464    0.512618     0.008887
AG2157   AG        0.206348    0.698681    0.456059     0.008887
AG2158   AG        0.252682    0.651242    0.466286     0.008887
CU2159   CU        0.250222    0.701899    0.479814     0.006663
AG2160   AG        0.302065    0.667617    0.469544     0.008887
AG2161   AG        0.255234    0.694961    0.468850     0.008887
CU2162   CU        0.302737    0.667979    0.458842     0.006663
AG2163   AG        0.297794    0.698277    0.502154     0.008887
CU2164   CU        0.352410    0.662132    0.459977     0.006663
CU2165   CU        0.343896    0.706380    0.436500     0.006663
CU2166   CU        0.387042    0.638686    0.441526     0.006663
AG2167   AG        0.399785    0.696411    0.493307     0.008887
AG2168   AG        0.438733    0.667591    0.496187     0.008887
AG2169   AG        0.428660    0.690861    0.455575     0.008887
CU2170   CU        0.449021    0.648382    0.450409     0.006663
AG2171   AG        0.476864    0.683123    0.468216     0.008887
AG2172   AG        0.483408    0.645036    0.493172     0.008887
CU2173   CU        0.504294    0.702070    0.440083     0.006663
CU2174   CU        0.513070    0.631751    0.459313     0.006663
CU2175   CU        0.525084    0.683383    0.503781     0.006663
CU2176   CU        0.544125    0.652865    0.491700     0.006663
CU2177   CU        0.534037    0.672272    0.439814     0.006663
CU2178   CU        0.606248    0.639899    0.454434     0.006663
CU2179   CU        0.614920    0.705026    0.488560     0.006663
AG2180   AG        0.637272    0.660191    0.475994     0.008887
CU2181   CU        0.638084    0.677909    0.455878     0.006663
AG2182   AG        0.680902    0.670748    0.470480     0.008887
AG2183   AG        0.671265    0.691373    0.485766     0.008887
AG2184   AG        0.709588    0.656645    0.490076     0.008887
AG2185   AG        0.714658    0.694157    0.458611     0.008887
AG2186   AG        0.734350    0.650727    0.443393     0.008887
AG2187   AG        0.726898    0.701461    0.503480     0.008887
AG2188   AG        0.756086    0.671718    0.475416     0.008887
AG2189   AG        0.768153    0.681373    0.428298     0.008887
CU2190   CU        0.813603    0.671954    0.454743     0.006663
CU2191   CU        0.132629    0.727855    0.476614     0.006663
CU2192   CU        0.167782    0.719642    0.450317     0.006663
CU2193   CU        0.148652    0.778417    0.489748     0.006663
AG2194   AG        0.218343    0.713695    0.504994     0.008887
AG2195   AG        0.190201    0.748022    0.475469     0.008887
AG2196   AG        0.232969    0.739835    0.458251     0.008887
AG2197   AG        0.231739    0.757067    0.502767     0.008887
AG2198   AG        0.318394    0.741534    0.490259     0.008887
AG2199   AG        0.278035    0.769113    0.442881     0.008887
AG2200   AG        0.307725    0.738548    0.440111     0.008887
CU2201   CU        0.310171    0.767632    0.483444     0.006663
CU2202   CU        0.361910    0.750739    0.473230     0.006663
CU2203   CU        0.353110    0.756111    0.456516     0.006663
CU2204   CU        0.404784    0.727722    0.454019     0.006663
AG2205   AG        0.387336    0.776791    0.495499     0.008887
AG2206   AG        0.408229    0.733622    0.469847     0.008887
AG2207   AG        0.433874    0.768480    0.445621     0.008887
AG2208   AG        0.460242    0.726689    0.457364     0.008887
AG2209   AG        0.451041    0.757274    0.489590     0.008887
AG2210   AG        0.498440    0.723687    0.489907     0.008887
AG2211   AG        0.483247    0.747986    0.455640     0.008887
CU2212   CU        0.537954    0.742928    0.437967     0.006663
CU2213   CU        0.520524    0.765625    0.470018     0.006663
AG2214   AG        0.571682    0.722133    0.479371     0.008887
AG2215   AG        0.568870    0.767089    0.454651     0.008887
AG2216   AG        0.601372    0.733546    0.447526     0.008887
AG2217   AG        0.612163    0.761003    0.479793     0.008887
AG2218   AG        0.658900    0.704179    0.492107     0.008887
CU2219   CU        0.641198    0.767790    0.447722     0.006663
CU2220   CU        0.674115    0.713274    0.445453     0.006663
CU2221   CU        0.654259    0.787392    0.488456     0.006663
AG2222   AG        0.696796    0.735532    0.485617     0.008887
CU2223   CU        0.689811    0.774760    0.462525     0.006663
CU2224   CU        0.749852    0.720168    0.453358     0.006663
CU2225   CU        0.726936    0.748429    0.482736     0.006663
CU2226   CU        0.762722    0.731860    0.497058     0.006663
CU2227   CU        0.239196    0.797049    0.452745     0.006663
AG2228   AG        0.269149    0.784319    0.490655     0.008887
CU2229   CU        0.268897    0.856001    0.443674     0.006663
AG2230   AG        0.314667    0.778842    0.465596     0.008887
AG2231   AG        0.309368    0.820797    0.484869     0.008887
AG2232   AG        0.347114    0.796606    0.485649     0.008887
AG2233   AG        0.340719    0.816974    0.442565     0.008887
AG2234   AG        0.389144    0.794394    0.448947     0.008887
AG2235   AG        0.385492    0.821233    0.484616     0.008887
AG2236   AG        0.424538    0.797549    0.479956     0.008887
AG2237   AG        0.426023    0.832641    0.450688     0.008887
AG2238   AG        0.434444    0.812276    0.434499     0.008887
AG2239   AG        0.429541    0.804670    0.488874     0.008887
AG2240   AG        0.472396    0.791652    0.461508     0.008887
CU2241   CU        0.506347    0.873410    0.435274     0.006663
CU2242   CU        0.526273    0.783361    0.462285     0.006663
CU2243   CU        0.534941    0.857703    0.473799     0.006663
CU2244   CU        0.548025    0.776860    0.473091     0.006663
AG2245   AG        0.559482    0.817174    0.453568     0.008887
AG2246   AG        0.603724    0.800117    0.447377     0.008887
AG2247   AG        0.584893    0.802111    0.494713     0.008887
AG2248   AG        0.632999    0.803604    0.488936     0.008887
CU2249   CU        0.630415    0.832669    0.444142     0.006663
AG2250   AG        0.643875    0.783650    0.445013     0.008887
CU2251   CU        0.388139    0.860511    0.463974     0.006663
CU2252   CU        0.425114    0.848594    0.492433     0.006663
CU2253   CU        0.467991    0.861533    0.464996     0.006663
CU2254   CU        0.491774    0.908820    0.484928     0.006663
CU2255   CU        0.551059    0.861913    0.450563     0.006663
CU2256   CU        0.314946    0.068442    0.562189     0.006663
CU2257   CU        0.343308    0.029943    0.498876     0.006663
CU2258   CU        0.402365    0.035518    0.552767     0.006663
AG2259   AG        0.413732    0.061541    0.513096     0.008887
CU2260   CU        0.452058    0.033416    0.504848     0.006663
AG2261   AG        0.447014    0.046173    0.553684     0.008887
CU2262   CU        0.489563    0.043288    0.525125     0.006663
CU2263   CU        0.522488    0.036372    0.565899     0.006663
CU2264   CU        0.566004    0.039417    0.501599     0.006663
CU2265   CU        0.593590    0.018692    0.544842     0.006663
AG2266   AG        0.207480    0.121430    0.513721     0.008887
CU2267   CU        0.244405    0.080794    0.522529     0.006663
CU2268   CU        0.235404    0.117458    0.554475     0.006663
CU2269   CU        0.271249    0.086029    0.566434     0.006663
AG2270   AG        0.273123    0.119817    0.530730     0.008887
CU2271   CU        0.324016    0.108643    0.530998     0.006663
AG2272   AG        0.307186    0.126430    0.567681     0.008887
CU2273   CU        0.354929    0.105080    0.563335     0.006663
AG2274   AG        0.376035    0.118495    0.548113     0.008887
AG2275   AG        0.381086    0.082362    0.480419     0.008887
CU2276   CU        0.416158    0.138732    0.551927     0.006663
AG2277   AG        0.416624    0.085122    0.550840     0.008887
AG2278   AG        0.414704    0.116298    0.513827     0.008887
AG2279   AG        0.455110    0.080851    0.525427     0.008887
CU2280   CU        0.459108    0.145161    0.572647     0.006663
AG2281   AG        0.485372    0.070030    0.565536     0.008887
AG2282   AG        0.492651    0.118325    0.548191     0.008887
CU2283   CU        0.530911    0.082963    0.545043     0.006663
AG2284   AG        0.537551    0.128121    0.568642     0.008887
AG2285   AG        0.570882    0.099569    0.553950     0.008887
AG2286   AG        0.561210    0.135535    0.524382     0.008887
CU2287   CU        0.611531    0.091546    0.521100     0.006663
CU2288   CU        0.589830    0.140067    0.570808     0.006663
AG2289   AG        0.618191    0.097496    0.571369     0.008887
CU2290   CU        0.658498    0.104874    0.536818     0.006663
CU2291   CU        0.657900    0.110425    0.553152     0.006663
CU2292   CU        0.688763    0.134661    0.568039     0.006663
CU2293   CU        0.721946    0.148398    0.525370     0.006663
AG2294   AG        0.146082    0.186175    0.523913     0.008887
AG2295   AG        0.172849    0.150234    0.508096     0.008887
AG2296   AG        0.179033    0.189166    0.562637     0.008887
AG2297   AG        0.203350    0.156328    0.546401     0.008887
AG2298   AG        0.211040    0.199545    0.521794     0.008887
AG2299   AG        0.242637    0.159798    0.526651     0.008887
AG2300   AG        0.229417    0.193641    0.560571     0.008887
AG2301   AG        0.261017    0.151823    0.565633     0.008887
AG2302   AG        0.264644    0.203827    0.530171     0.008887
AG2303   AG        0.295252    0.165145    0.539637     0.008887
CU2304   CU        0.312238    0.204439    0.547524     0.006663
AG2305   AG        0.340168    0.151192    0.550464     0.008887
AG2306   AG        0.352808    0.191575    0.531051     0.008887
AG2307   AG        0.379432    0.151334    0.514397     0.008887
AG2308   AG        0.380920    0.165865    0.566147     0.008887
CU2309   CU        0.423720    0.157786    0.540689     0.006663
CU2310   CU        0.451193    0.200854    0.498733     0.006663
CU2311   CU        0.466165    0.161818    0.524563     0.006663
CU2312   CU        0.455559    0.215058    0.545469     0.006663
CU2313   CU        0.502043    0.164035    0.563226     0.006663
CU2314   CU        0.503746    0.188769    0.504450     0.006663
AG2315   AG        0.541260    0.174759    0.541135     0.008887
AG2316   AG        0.530466    0.209663    0.567890     0.008887
AG2317   AG        0.583844    0.154175    0.557509     0.008887
CU2318   CU        0.591424    0.198248    0.556006     0.006663
CU2319   CU        0.587325    0.170689    0.519799     0.006663
AG2320   AG        0.580510    0.205008    0.554096     0.008887
AG2321   AG        0.620427    0.138904    0.537281     0.008887
AG2322   AG        0.626401    0.190363    0.528180     0.008887
CU2323   CU        0.694278    0.163169    0.533122     0.006663
AG2324   AG        0.660902    0.193164    0.556318     0.008887
CU2325   CU        0.709671    0.143409    0.577032     0.006663
CU2326   CU        0.705325    0.216052    0.542627     0.006663
CU2327   CU        0.739176    0.148114    0.532094     0.006663
CU2328   CU        0.730619    0.181846    0.556695     0.006663
CU2329   CU        0.788701    0.217088    0.515243     0.006663
CU2330   CU        0.117323    0.224163    0.518327     0.006663
CU2331   CU        0.109653    0.260332    0.545433     0.006663
AG2332   AG        0.148908    0.226120    0.562136     0.008887
AG2333   AG        0.147883    0.260509    0.519522     0.008887
AG2334   AG        0.172600    0.224833    0.523484     0.008887
AG2335   AG        0.173206    0.277029    0.562422     0.008887
AG2336   AG        0.196266    0.233391    0.563218     0.008887
CU2337   CU        0.190829    0.281967    0.519526     0.006663
AG2338   AG        0.235449    0.239754    0.531985     0.008887
AG2339   AG        0.225316    0.273420    0.548130     0.008887
AG2340   AG        0.285038    0.242714    0.547180     0.008887
AG2341   AG        0.270784    0.274659    0.516256     0.008887
CU2342   CU        0.307983    0.214655    0.520528     0.006663
CU2343   CU        0.325262    0.275755    0.583784     0.006663
CU2344   CU        0.357987    0.223944    0.566515     0.006663
CU2345   CU        0.347416    0.267228    0.546137     0.006663
CU2346   CU        0.382991    0.230814    0.522802     0.006663
CU2347   CU        0.397904    0.253134    0.564006     0.006663
CU2348   CU        0.440910    0.245278    0.576845     0.006663
AG2349   AG        0.432763    0.293687    0.500802     0.008887
CU2350   CU        0.460305    0.266903    0.525357     0.006663
CU2351   CU        0.484101    0.288118    0.524726     0.006663
AG2352   AG        0.498900    0.250601    0.550225     0.008887
CU2353   CU        0.505149    0.290280    0.524853     0.006663
AG2354   AG        0.526126    0.221503    0.518105     0.008887
AG2355   AG        0.539705    0.269951    0.554905     0.008887
AG2356   AG        0.540002    0.217566    0.565154     0.008887
CU2357   CU        0.546279    0.261007    0.532240     0.006663
AG2358   AG        0.590364    0.228004    0.516933     0.008887
CU2359   CU        0.580806    0.276627    0.581208     0.006663
AG2360   AG        0.626263    0.234442    0.553891     0.008887
AG2361   AG        0.627540    0.249678    0.511684     0.008887
AG2362   AG        0.663923    0.225577    0.524844     0.008887
AG2363   AG        0.664046    0.270340    0.545026     0.008887
CU2364   CU        0.703339    0.225960    0.557500     0.006663
AG2365   AG        0.711818    0.260857    0.528816     0.008887
AG2366   AG        0.748820    0.235887    0.527007     0.008887
AG2367   AG        0.750806    0.264051    0.566901     0.008887
AG2368   AG        0.780904    0.227766    0.563632     0.008887
AG2369   AG        0.784314    0.268574    0.533245     0.008887
CU2370   CU        0.802395    0.228126    0.524035     0.006663
CU2371   CU        0.800892    0.272364    0.579673     0.006663
CU2372   CU        0.056397    0.305200    0.565224     0.006663
CU2373   CU        0.084291    0.337159    0.540061     0.006663
CU2374   CU        0.099696    0.307107    0.524345     0.006663
CU2375   CU        0.104718    0.302727    0.573540     0.006663
AG2376   AG        0.156179    0.305966    0.566307     0.008887
AG2377   AG        0.128250    0.339805    0.547340     0.008887
AG2378   AG        0.182518    0.301895    0.524302     0.008887
AG2379   AG        0.167852    0.356119    0.554916     0.008887
AG2380   AG        0.207894    0.310778    0.560783     0.008887
AG2381   AG        0.203186    0.347288    0.519204     0.008887
AG2382   AG        0.235482    0.309756    0.519073     0.008887
CU2383   CU        0.244853    0.338624    0.556700     0.006663
CU2384   CU        0.274350    0.283950    0.564018     0.006663
CU2385   CU        0.280438    0.328817    0.529831     0.006663
CU2386   CU        0.310292    0.300234    0.543094     0.006663
CU2387   CU        0.288087    0.370242    0.546074     0.006663
CU2388   CU        0.329284    0.316800    0.552746     0.006663
CU2389   CU        0.365931    0.327502    0.498139     0.006663
CU2390   CU        0.381914    0.305323    0.543357     0.006663
CU2391   CU        0.371500    0.325664    0.543609     0.006663
CU2392   CU        0.410328    0.317628    0.573950     0.006663
AG2393   AG        0.414326    0.328556    0.523286     0.008887
CU2394   CU        0.467528    0.270684    0.513764     0.006663
CU2395   CU        0.449373    0.350768    0.543193     0.006663
CU2396   CU        0.466997    0.308239    0.560680     0.006663
CU2397   CU        0.503853    0.339177    0.537470     0.006663
AG2398   AG        0.510747    0.282611    0.513325     0.008887
CU2399   CU        0.549126    0.366539    0.535333     0.006663
CU2400   CU        0.571302    0.303094    0.556048     0.006663
CU2401   CU        0.544265    0.315071    0.525880     0.006663
CU2402   CU        0.589568    0.281881    0.503602     0.006663
AG2403   AG        0.584985    0.364666    0.566944     0.008887
CU2404   CU        0.625735    0.281053    0.575268     0.006663
CU2405   CU        0.649917    0.327092    0.522204     0.006663
AG2406   AG        0.673864    0.312764    0.518823     0.008887
CU2407   CU        0.679800    0.352014    0.549159     0.006663
AG2408   AG        0.702989    0.305645    0.551947     0.008887
AG2409   AG        0.711384    0.337082    0.517346     0.008887
AG2410   AG        0.746949    0.298453    0.527033     0.008887
AG2411   AG        0.743988    0.339540    0.556047     0.008887
AG2412   AG        0.780169    0.307074    0.562542     0.008887
AG2413   AG        0.783801    0.334056    0.521184     0.008887
CU2414   CU        0.814730    0.317637    0.513207     0.006663
AG2415   AG        0.819395    0.337852    0.559179     0.008887
CU2416   CU        0.872751    0.275482    0.581462     0.006663
CU2417   CU        0.848712    0.353928    0.528500     0.006663
CU2418   CU        0.066220    0.351747    0.586497     0.006663
AG2419   AG        0.073302    0.413525    0.529911     0.008887
AG2420   AG        0.116592    0.383227    0.530678     0.008887
CU2421   CU        0.110239    0.437847    0.526244     0.006663
AG2422   AG        0.130857    0.376738    0.573990     0.008887
AG2423   AG        0.125064    0.424070    0.550751     0.008887
AG2424   AG        0.171024    0.376425    0.513112     0.008887
AG2425   AG        0.172044    0.401746    0.553784     0.008887
AG2426   AG        0.216516    0.372788    0.561087     0.008887
AG2427   AG        0.213083    0.403819    0.524025     0.008887
AG2428   AG        0.249851    0.373761    0.520697     0.008887
AG2429   AG        0.257913    0.403118    0.559267     0.008887
CU2430   CU        0.260763    0.361172    0.568656     0.006663
CU2431   CU        0.287626    0.417113    0.523268     0.006663
CU2432   CU        0.318897    0.385941    0.521063     0.006663
CU2433   CU        0.307497    0.421449    0.546894     0.006663
CU2434   CU        0.347990    0.400138    0.568689     0.006663
CU2435   CU        0.338847    0.399886    0.514555     0.006663
CU2436   CU        0.412362    0.379176    0.516520     0.006663
CU2437   CU        0.384538    0.430236    0.557052     0.006663
CU2438   CU        0.420181    0.379393    0.577639     0.006663
CU2439   CU        0.417721    0.379755    0.509601     0.006663
AG2440   AG        0.443513    0.364326    0.541605     0.008887
AG2441   AG        0.471167    0.400798    0.569272     0.008887
CU2442   CU        0.489058    0.357614    0.559911     0.006663
AG2443   AG        0.496166    0.428341    0.511893     0.008887
CU2444   CU        0.534091    0.353793    0.497150     0.006663
AG2445   AG        0.515772    0.399331    0.545691     0.008887
CU2446   CU        0.547293    0.361840    0.544013     0.006663
CU2447   CU        0.545500    0.413771    0.517792     0.006663
AG2448   AG        0.590586    0.381395    0.520712     0.008887
AG2449   AG        0.604276    0.402636    0.559878     0.008887
AG2450   AG        0.632438    0.366285    0.545045     0.008887
AG2451   AG        0.628172    0.405221    0.515791     0.008887
AG2452   AG        0.669523    0.363538    0.520802     0.008887
AG2453   AG        0.664807    0.404099    0.546099     0.008887
CU2454   CU        0.680741    0.344287    0.558353     0.006663
CU2455   CU        0.698272    0.422061    0.517658     0.006663
AG2456   AG        0.748063    0.361923    0.513415     0.008887
AG2457   AG        0.731178    0.418338    0.547669     0.008887
AG2458   AG        0.782458    0.371212    0.550319     0.008887
AG2459   AG        0.778210    0.417309    0.533730     0.008887
CU2460   CU        0.823996    0.397682    0.532812     0.006663
CU2461   CU        0.826746    0.381489    0.553735     0.006663
CU2462   CU        0.831151    0.386143    0.561928     0.006663
CU2463   CU        0.857235    0.413437    0.521764     0.006663
CU2464   CU        0.040579    0.453684    0.542751     0.006663
AG2465   AG        0.081815    0.450072    0.555859     0.008887
CU2466   CU        0.062605    0.501346    0.531731     0.006663
CU2467   CU        0.104569    0.445330    0.515028     0.006663
CU2468   CU        0.105443    0.490022    0.564804     0.006663
CU2469   CU        0.159059    0.459258    0.571531     0.006663
AG2470   AG        0.153046    0.488864    0.545226     0.008887
CU2471   CU        0.185828    0.449765    0.499593     0.006663
CU2472   CU        0.163536    0.505512    0.549898     0.006663
CU2473   CU        0.208546    0.420293    0.571220     0.006663
AG2474   AG        0.198700    0.486761    0.521455     0.008887
AG2475   AG        0.246252    0.439906    0.525669     0.008887
CU2476   CU        0.240184    0.479035    0.548365     0.006663
AG2477   AG        0.286380    0.446484    0.558533     0.008887
AG2478   AG        0.276677    0.467858    0.510542     0.008887
AG2479   AG        0.324352    0.464877    0.529829     0.008887
AG2480   AG        0.315849    0.486286    0.574215     0.008887
AG2481   AG        0.337930    0.444785    0.576389     0.008887
CU2482   CU        0.356173    0.508775    0.565246     0.006663
CU2483   CU        0.390488    0.427377    0.512268     0.006663
CU2484   CU        0.394906    0.492041    0.544823     0.006663
CU2485   CU        0.426449    0.457716    0.543425     0.006663
CU2486   CU        0.430724    0.479351    0.493183     0.006663
CU2487   CU        0.464880    0.470784    0.526230     0.006663
CU2488   CU        0.456429    0.479376    0.570587     0.006663
AG2489   AG        0.485771    0.438716    0.558112     0.008887
AG2490   AG        0.505986    0.492022    0.532037     0.008887
AG2491   AG        0.528250    0.448171    0.544467     0.008887
CU2492   CU        0.528553    0.490082    0.571961     0.006663
AG2493   AG        0.575639    0.438946    0.539904     0.008887
AG2494   AG        0.554028    0.478472    0.531140     0.008887
AG2495   AG        0.587184    0.434076    0.529729     0.008887
AG2496   AG        0.592039    0.474363    0.566453     0.008887
AG2497   AG        0.628528    0.444496    0.550365     0.008887
AG2498   AG        0.599634    0.478616    0.521468     0.008887
AG2499   AG        0.660238    0.446302    0.509931     0.008887
CU2500   CU        0.681070    0.497949    0.553044     0.006663
AG2501   AG        0.687400    0.446046    0.556444     0.008887
AG2502   AG        0.702295    0.478699    0.516603     0.008887
AG2503   AG        0.747551    0.455157    0.514590     0.008887
AG2504   AG        0.731554    0.479887    0.557969     0.008887
AG2505   AG        0.770212    0.448171    0.563986     0.008887
AG2506   AG        0.786081    0.472333    0.531600     0.008887
CU2507   CU        0.824972    0.446684    0.531236     0.006663
AG2508   AG        0.812717    0.475234    0.573872     0.008887
AG2509   AG        0.819574    0.439215    0.548030     0.008887
AG2510   AG        0.832655    0.488933    0.532298     0.008887
CU2511   CU        0.869857    0.458661    0.540918     0.006663
CU2512   CU        0.056277    0.490002    0.574951     0.006663
CU2513   CU        0.074248    0.550148    0.520756     0.006663
AG2514   AG        0.115774    0.521897    0.527912     0.008887
CU2515   CU        0.101524    0.552972    0.556373     0.006663
AG2516   AG        0.124697    0.512174    0.578215     0.008887
CU2517   CU        0.119872    0.532509    0.508361     0.006663
AG2518   AG        0.160805    0.511705    0.506329     0.008887
AG2519   AG        0.169369    0.552424    0.560926     0.008887
AG2520   AG        0.207780    0.515443    0.561032     0.008887
CU2521   CU        0.244789    0.531563    0.530479     0.006663
CU2522   CU        0.245417    0.505978    0.535767     0.006663
CU2523   CU        0.242631    0.540082    0.568183     0.006663
CU2524   CU        0.287817    0.522196    0.564231     0.006663
AG2525   AG        0.288878    0.559354    0.529790     0.008887
AG2526   AG        0.298902    0.512057    0.521068     0.008887
AG2527   AG        0.307665    0.533291    0.563314     0.008887
CU2528   CU        0.349542    0.523811    0.571044     0.006663
AG2529   AG        0.334681    0.547319    0.526409     0.008887
CU2530   CU        0.376703    0.528886    0.526310     0.006663
CU2531   CU        0.384833    0.550675    0.566938     0.006663
CU2532   CU        0.439961    0.556025    0.568417     0.006663
AG2533   AG        0.411391    0.541789    0.525033     0.008887
AG2534   AG        0.463959    0.523096    0.516880     0.008887
AG2535   AG        0.480631    0.570286    0.556317     0.008887
AG2536   AG        0.480202    0.525537    0.560989     0.008887
AG2537   AG        0.500444    0.551000    0.518076     0.008887
CU2538   CU        0.535450    0.521385    0.522361     0.006663
AG2539   AG        0.522342    0.541420    0.565662     0.008887
AG2540   AG        0.569192    0.515226    0.549401     0.008887
AG2541   AG        0.561456    0.561152    0.534715     0.008887
CU2542   CU        0.580508    0.513413    0.542574     0.006663
AG2543   AG        0.604001    0.552821    0.545285     0.008887
CU2544   CU        0.616736    0.514124    0.569551     0.006663
CU2545   CU        0.640450    0.559956    0.522872     0.006663
CU2546   CU        0.667883    0.518840    0.516180     0.006663
AG2547   AG        0.673044    0.575306    0.569926     0.008887
CU2548   CU        0.704853    0.521781    0.548743     0.006663
AG2549   AG        0.693549    0.561536    0.521604     0.008887
AG2550   AG        0.729634    0.538699    0.507717     0.008887
CU2551   CU        0.754275    0.540994    0.543868     0.006663
CU2552   CU        0.763014    0.536391    0.544126     0.006663
AG2553   AG        0.789786    0.564721    0.512758     0.008887
AG2554   AG        0.799001    0.514423    0.503626     0.008887
AG2555   AG        0.803464    0.515626    0.553692     0.008887
AG2556   AG        0.844061    0.510702    0.579146     0.008887
CU2557   CU        0.832785    0.539529    0.516913     0.006663
CU2558   CU        0.050895    0.569484    0.572285     0.006663
CU2559   CU        0.087284    0.603016    0.507329     0.006663
CU2560   CU        0.121670    0.617412    0.527181     0.006663
AG2561   AG        0.141325    0.589110    0.561577     0.008887
CU2562   CU        0.132322    0.620274    0.516499     0.006663
AG2563   AG        0.162627    0.585393    0.520867     0.008887
CU2564   CU        0.142864    0.615328    0.568318     0.006663
CU2565   CU        0.219831    0.561337    0.567667     0.006663
CU2566   CU        0.199993    0.639971    0.515694     0.006663
AG2567   AG        0.246774    0.575150    0.526894     0.008887
CU2568   CU        0.228002    0.603870    0.555447     0.006663
CU2569   CU        0.289365    0.593568    0.562031     0.006663
AG2570   AG        0.283769    0.634329    0.533503     0.008887
AG2571   AG        0.320675    0.599008    0.523590     0.008887
AG2572   AG        0.331414    0.624648    0.560054     0.008887
AG2573   AG        0.358245    0.590532    0.545025     0.008887
AG2574   AG        0.359278    0.629418    0.514795     0.008887
AG2575   AG        0.400497    0.603255    0.521505     0.008887
AG2576   AG        0.383625    0.631099    0.559516     0.008887
CU2577   CU        0.393548    0.574301    0.562350     0.006663
AG2578   AG        0.444639    0.619863    0.506782     0.008887
CU2579   CU        0.445534    0.599630    0.549923     0.006663
AG2580   AG        0.465890    0.612394    0.575583     0.008887
CU2581   CU        0.491611    0.602620    0.528945     0.006663
AG2582   AG        0.486698    0.614277    0.530759     0.008887
AG2583   AG        0.525490    0.591673    0.551671     0.008887
AG2584   AG        0.523414    0.639680    0.535409     0.008887
AG2585   AG        0.583307    0.597350    0.564155     0.008887
AG2586   AG        0.561763    0.613223    0.520404     0.008887
AG2587   AG        0.600405    0.589434    0.519457     0.008887
CU2588   CU        0.610571    0.639040    0.548239     0.006663
AG2589   AG        0.628277    0.593651    0.555574     0.008887
AG2590   AG        0.635087    0.624418    0.516026     0.008887
CU2591   CU        0.655231    0.585793    0.524119     0.006663
AG2592   AG        0.659490    0.626220    0.559480     0.008887
AG2593   AG        0.718538    0.569691    0.564701     0.008887
CU2594   CU        0.702869    0.636659    0.531956     0.006663
AG2595   AG        0.741321    0.582025    0.519497     0.008887
AG2596   AG        0.739319    0.615984    0.559878     0.008887
AG2597   AG        0.767877    0.578294    0.558044     0.008887
AG2598   AG        0.778235    0.614034    0.527599     0.008887
CU2599   CU        0.823850    0.604245    0.511968     0.006663
AG2600   AG        0.815461    0.588285    0.551675     0.008887
CU2601   CU        0.837097    0.554799    0.566183     0.006663
CU2602   CU        0.088127    0.650722    0.520231     0.006663
CU2603   CU        0.135307    0.653782    0.549180     0.006663
CU2604   CU        0.129001    0.695651    0.517122     0.006663
CU2605   CU        0.156019    0.638726    0.544559     0.006663
CU2606   CU        0.174347    0.726821    0.577009     0.006663
CU2607   CU        0.194993    0.637902    0.566840     0.006663
CU2608   CU        0.212847    0.706456    0.507334     0.006663
AG2609   AG        0.224553    0.676908    0.541034     0.008887
AG2610   AG        0.226906    0.696282    0.554647     0.008887
AG2611   AG        0.268674    0.671003    0.551960     0.008887
CU2612   CU        0.263852    0.708433    0.527688     0.006663
CU2613   CU        0.317099    0.667021    0.542117     0.006663
CU2614   CU        0.313654    0.694624    0.533677     0.006663
CU2615   CU        0.347682    0.666718    0.543365     0.006663
AG2616   AG        0.334089    0.664099    0.500839     0.008887
AG2617   AG        0.405918    0.648321    0.516221     0.008887
CU2618   CU        0.412037    0.685737    0.535621     0.006663
CU2619   CU        0.431709    0.639940    0.551535     0.006663
CU2620   CU        0.432226    0.688506    0.534265     0.006663
AG2621   AG        0.450366    0.646701    0.541834     0.008887
AG2622   AG        0.453492    0.694021    0.555691     0.008887
AG2623   AG        0.505693    0.677803    0.566072     0.008887
AG2624   AG        0.485437    0.686153    0.522232     0.008887
CU2625   CU        0.548591    0.677249    0.541911     0.006663
CU2626   CU        0.533054    0.704881    0.557611     0.006663
AG2627   AG        0.551851    0.631587    0.569827     0.008887
CU2628   CU        0.531629    0.698905    0.510982     0.006663
CU2629   CU        0.600575    0.636535    0.544565     0.006663
CU2630   CU        0.585725    0.674361    0.569564     0.006663
CU2631   CU        0.622301    0.658830    0.541426     0.006663
CU2632   CU        0.642371    0.700794    0.532108     0.006663
AG2633   AG        0.664672    0.656496    0.518548     0.008887
CU2634   CU        0.651803    0.714348    0.544945     0.006663
CU2635   CU        0.706582    0.645929    0.543665     0.006663
CU2636   CU        0.693553    0.689753    0.526531     0.006663
AG2637   AG        0.750911    0.657015    0.520669     0.008887
CU2638   CU        0.747412    0.697599    0.592003     0.006663
CU2639   CU        0.796849    0.678176    0.541519     0.006663
CU2640   CU        0.752114    0.702711    0.539452     0.006663
CU2641   CU        0.826108    0.683695    0.505981     0.006663
AG2642   AG        0.178893    0.708676    0.537559     0.008887
AG2643   AG        0.211514    0.740016    0.543532     0.008887
CU2644   CU        0.185806    0.775281    0.518722     0.006663
AG2645   AG        0.258053    0.717273    0.528958     0.008887
AG2646   AG        0.235254    0.768563    0.581836     0.008887
AG2647   AG        0.273181    0.735837    0.570288     0.008887
AG2648   AG        0.264684    0.768344    0.539959     0.008887
AG2649   AG        0.301780    0.740348    0.530024     0.008887
AG2650   AG        0.310198    0.772469    0.563387     0.008887
CU2651   CU        0.355829    0.728953    0.561452     0.006663
AG2652   AG        0.342385    0.763080    0.522121     0.008887
AG2653   AG        0.379950    0.733142    0.514313     0.008887
AG2654   AG        0.386215    0.768974    0.545054     0.008887
AG2655   AG        0.416977    0.727845    0.548029     0.008887
AG2656   AG        0.425861    0.758105    0.510459     0.008887
AG2657   AG        0.456829    0.715306    0.508310     0.008887
AG2658   AG        0.436727    0.768713    0.560752     0.008887
AG2659   AG        0.496613    0.713092    0.534978     0.008887
AG2660   AG        0.462246    0.735484    0.530040     0.008887
CU2661   CU        0.543221    0.724056    0.517733     0.006663
AG2662   AG        0.537480    0.753045    0.554793     0.008887
CU2663   CU        0.559958    0.718519    0.523742     0.006663
AG2664   AG        0.572162    0.757812    0.505165     0.008887
AG2665   AG        0.607882    0.724457    0.514171     0.008887
AG2666   AG        0.580688    0.748760    0.551588     0.008887
CU2667   CU        0.624941    0.750615    0.576269     0.006663
AG2668   AG        0.607768    0.773670    0.527415     0.008887
CU2669   CU        0.682707    0.722137    0.525177     0.006663
CU2670   CU        0.680234    0.753088    0.560366     0.006663
CU2671   CU        0.724774    0.754055    0.561463     0.006663
CU2672   CU        0.692735    0.771441    0.512254     0.006663
CU2673   CU        0.726877    0.741699    0.526972     0.006663
CU2674   CU        0.231231    0.801116    0.524442     0.006663
CU2675   CU        0.280104    0.814536    0.526743     0.006663
AG2676   AG        0.310600    0.784480    0.518774     0.008887
CU2677   CU        0.293667    0.854388    0.558928     0.006663
CU2678   CU        0.349570    0.798682    0.551751     0.006663
CU2679   CU        0.331035    0.828970    0.527806     0.006663
CU2680   CU        0.392682    0.819941    0.547134     0.006663
CU2681   CU        0.395116    0.858175    0.567823     0.006663
CU2682   CU        0.412050    0.806516    0.568156     0.006663
AG2683   AG        0.432976    0.843578    0.540598     0.008887
CU2684   CU        0.445661    0.800969    0.530804     0.006663
CU2685   CU        0.481443    0.835099    0.543881     0.006663
CU2686   CU        0.503379    0.808578    0.559037     0.006663
CU2687   CU        0.501349    0.830663    0.506831     0.006663
CU2688   CU        0.512168    0.796714    0.544222     0.006663
CU2689   CU        0.535094    0.840047    0.546688     0.006663
AG2690   AG        0.566497    0.796026    0.541454     0.008887
CU2691   CU        0.543296    0.837768    0.518429     0.006663
CU2692   CU        0.611818    0.825191    0.529679     0.006663
CU2693   CU        0.631269    0.834504    0.569451     0.006663
CU2694   CU        0.655026    0.820865    0.529725     0.006663
CU2695   CU        0.647140    0.789147    0.510445     0.006663
CU2696   CU        0.458005    0.876434    0.561161     0.006663
AG2697   AG        0.342008    0.074080    0.597979     0.008887
CU2698   CU        0.428088    0.057352    0.591222     0.006663
CU2699   CU        0.488374    0.039247    0.639352     0.006663
CU2700   CU        0.481208    0.057683    0.589563     0.006663
CU2701   CU        0.578762    0.051334    0.629100     0.006663
CU2702   CU        0.186149    0.122002    0.616261     0.006663
CU2703   CU        0.226259    0.109775    0.623333     0.006663
AG2704   AG        0.270302    0.121894    0.596146     0.008887
CU2705   CU        0.312947    0.114051    0.579369     0.006663
AG2706   AG        0.312381    0.130805    0.623940     0.008887
CU2707   CU        0.350646    0.103819    0.635891     0.006663
AG2708   AG        0.352424    0.124339    0.594176     0.008887
AG2709   AG        0.387783    0.091005    0.590500     0.008887
AG2710   AG        0.393485    0.127002    0.625512     0.008887
CU2711   CU        0.430351    0.091602    0.622815     0.006663
CU2712   CU        0.429679    0.108528    0.593371     0.006663
CU2713   CU        0.458028    0.096306    0.572185     0.006663
AG2714   AG        0.455687    0.134999    0.630246     0.008887
AG2715   AG        0.531139    0.110764    0.618237     0.008887
AG2716   AG        0.492596    0.133502    0.597394     0.008887
CU2717   CU        0.524703    0.087321    0.576638     0.006663
AG2718   AG        0.535905    0.155548    0.618588     0.008887
CU2719   CU        0.578880    0.095602    0.640314     0.006663
AG2720   AG        0.538566    0.137611    0.573942     0.008887
CU2721   CU        0.615895    0.077206    0.615452     0.006663
AG2722   AG        0.588914    0.150024    0.621392     0.008887
CU2723   CU        0.651489    0.101420    0.602442     0.006663
CU2724   CU        0.626385    0.114114    0.638245     0.006663
CU2725   CU        0.700777    0.110471    0.605681     0.006663
CU2726   CU        0.153583    0.194102    0.601121     0.006663
CU2727   CU        0.171125    0.151467    0.587629     0.006663
CU2728   CU        0.159990    0.166000    0.632544     0.006663
CU2729   CU        0.194465    0.168420    0.607517     0.006663
AG2730   AG        0.220763    0.210556    0.601106     0.008887
CU2731   CU        0.247735    0.169647    0.606596     0.006663
AG2732   AG        0.258674    0.195574    0.633558     0.008887
CU2733   CU        0.258835    0.144638    0.616033     0.006663
CU2734   CU        0.260865    0.187559    0.603512     0.006663
AG2735   AG        0.295577    0.164185    0.590977     0.008887
AG2736   AG        0.310271    0.186226    0.624506     0.008887
AG2737   AG        0.348142    0.155274    0.629767     0.008887
CU2738   CU        0.344622    0.175282    0.586032     0.006663
AG2739   AG        0.354488    0.161682    0.629560     0.008887
AG2740   AG        0.392968    0.174680    0.611597     0.008887
AG2741   AG        0.420267    0.160996    0.653025     0.008887
AG2742   AG        0.426762    0.182433    0.575751     0.008887
CU2743   CU        0.470138    0.171874    0.574087     0.006663
AG2744   AG        0.479460    0.229276    0.628447     0.008887
AG2745   AG        0.488202    0.177447    0.622006     0.008887
AG2746   AG        0.514760    0.177031    0.581373     0.008887
CU2747   CU        0.517658    0.170390    0.591400     0.006663
AG2748   AG        0.528195    0.202986    0.618343     0.008887
CU2749   CU        0.545409    0.150103    0.625474     0.006663
AG2750   AG        0.565131    0.185206    0.593971     0.008887
AG2751   AG        0.610111    0.177660    0.589819     0.008887
AG2752   AG        0.560965    0.179229    0.589062     0.008887
CU2753   CU        0.637311    0.177758    0.632103     0.006663
AG2754   AG        0.639347    0.211152    0.598297     0.008887
AG2755   AG        0.663348    0.166355    0.595087     0.008887
AG2756   AG        0.675610    0.206995    0.622847     0.008887
AG2757   AG        0.697564    0.159208    0.623859     0.008887
AG2758   AG        0.699720    0.190243    0.585652     0.008887
CU2759   CU        0.739642    0.170849    0.608000     0.006663
CU2760   CU        0.719638    0.203438    0.634846     0.006663
CU2761   CU        0.775386    0.179196    0.584084     0.006663
CU2762   CU        0.125743    0.225294    0.613455     0.006663
AG2763   AG        0.125517    0.265767    0.585304     0.008887
CU2764   CU        0.170512    0.209698    0.606478     0.006663
CU2765   CU        0.179489    0.292295    0.646260     0.006663
CU2766   CU        0.220487    0.232668    0.641071     0.006663
AG2767   AG        0.203630    0.270357    0.592604     0.008887
AG2768   AG        0.243829    0.243988    0.579355     0.008887
AG2769   AG        0.224241    0.279716    0.636934     0.008887
AG2770   AG        0.257735    0.228399    0.671326     0.008887
CU2771   CU        0.285808    0.263811    0.608867     0.006663
CU2772   CU        0.320757    0.231782    0.611740     0.006663
CU2773   CU        0.337576    0.276588    0.631396     0.006663
AG2774   AG        0.356070    0.208565    0.614877     0.008887
CU2775   CU        0.371660    0.251563    0.601064     0.006663
AG2776   AG        0.395441    0.220075    0.636791     0.008887
CU2777   CU        0.387272    0.266491    0.623639     0.006663
CU2778   CU        0.434804    0.239716    0.628417     0.006663
CU2779   CU        0.434644    0.280175    0.609572     0.006663
CU2780   CU        0.460016    0.204627    0.595921     0.006663
AG2781   AG        0.462580    0.272092    0.645319     0.008887
CU2782   CU        0.486636    0.228901    0.636111     0.006663
AG2783   AG        0.483306    0.265235    0.599720     0.008887
AG2784   AG        0.515630    0.246274    0.594221     0.008887
AG2785   AG        0.521043    0.260568    0.636604     0.008887
AG2786   AG        0.547913    0.228640    0.647862     0.008887
AG2787   AG        0.549811    0.244825    0.597878     0.008887
AG2788   AG        0.596244    0.227439    0.591684     0.008887
CU2789   CU        0.605435    0.274668    0.619689     0.006663
CU2790   CU        0.639118    0.243273    0.631430     0.006663
CU2791   CU        0.633061    0.263352    0.590172     0.006663
CU2792   CU        0.642455    0.242700    0.602901     0.006663
AG2793   AG        0.675563    0.268333    0.621739     0.008887
CU2794   CU        0.714348    0.251329    0.634319     0.006663
AG2795   AG        0.702318    0.270572    0.581110     0.008887
AG2796   AG        0.742434    0.216865    0.586937     0.008887
CU2797   CU        0.758872    0.266635    0.655112     0.006663
AG2798   AG        0.775792    0.244754    0.608900     0.008887
AG2799   AG        0.768549    0.290689    0.611309     0.008887
CU2800   CU        0.074233    0.358090    0.636038     0.006663
AG2801   AG        0.105968    0.313677    0.576355     0.008887
CU2802   CU        0.103703    0.319681    0.651206     0.006663
AG2803   AG        0.137104    0.298259    0.615748     0.008887
AG2804   AG        0.145869    0.341290    0.594364     0.008887
AG2805   AG        0.183653    0.315008    0.604443     0.008887
AG2806   AG        0.180341    0.346179    0.637918     0.008887
AG2807   AG        0.189090    0.299770    0.605522     0.008887
AG2808   AG        0.216397    0.346712    0.598367     0.008887
AG2809   AG        0.238652    0.305841    0.595697     0.008887
CU2810   CU        0.227910    0.326682    0.646921     0.006663
AG2811   AG        0.270546    0.301099    0.630106     0.008887
AG2812   AG        0.266147    0.342641    0.616357     0.008887
AG2813   AG        0.291954    0.309029    0.588027     0.008887
AG2814   AG        0.313283    0.331850    0.630289     0.008887
CU2815   CU        0.358109    0.299257    0.619513     0.006663
CU2816   CU        0.368633    0.339687    0.586513     0.006663
CU2817   CU        0.401939    0.300316    0.586429     0.006663
AG2818   AG        0.378130    0.344040    0.636408     0.008887
AG2819   AG        0.416152    0.307576    0.640110     0.008887
AG2820   AG        0.415428    0.340801    0.611165     0.008887
AG2821   AG        0.449657    0.299920    0.603912     0.008887
AG2822   AG        0.458036    0.340469    0.634029     0.008887
AG2823   AG        0.493137    0.305520    0.634174     0.008887
CU2824   CU        0.492588    0.327509    0.593942     0.006663
AG2825   AG        0.528686    0.291559    0.600576     0.008887
AG2826   AG        0.533087    0.333503    0.633965     0.008887
CU2827   CU        0.555450    0.305375    0.643603     0.006663
AG2828   AG        0.574856    0.343281    0.612582     0.008887
CU2829   CU        0.571411    0.315699    0.602636     0.006663
CU2830   CU        0.605950    0.322871    0.639178     0.006663
AG2831   AG        0.648567    0.308782    0.621051     0.008887
AG2832   AG        0.641148    0.342265    0.588551     0.008887
AG2833   AG        0.667239    0.306162    0.587816     0.008887
AG2834   AG        0.681903    0.347834    0.630279     0.008887
AG2835   AG        0.703469    0.303559    0.621262     0.008887
CU2836   CU        0.692122    0.323226    0.593844     0.006663
AG2837   AG        0.736489    0.306857    0.582898     0.008887
AG2838   AG        0.736426    0.336341    0.621357     0.008887
CU2839   CU        0.776736    0.303764    0.627967     0.006663
AG2840   AG        0.773285    0.342718    0.598229     0.008887
AG2841   AG        0.812162    0.319050    0.603936     0.008887
CU2842   CU        0.782589    0.330382    0.640269     0.006663
CU2843   CU        0.856379    0.353459    0.587966     0.006663
CU2844   CU        0.071579    0.395848    0.610039     0.006663
CU2845   CU        0.109392    0.343629    0.612835     0.006663
AG2846   AG        0.114746    0.391852    0.621068     0.008887
CU2847   CU        0.128989    0.391086    0.610146     0.006663
AG2848   AG        0.151526    0.417628    0.594123     0.008887
AG2849   AG        0.177290    0.374113    0.597924     0.008887
AG2850   AG        0.163928    0.407067    0.634758     0.008887
AG2851   AG        0.199782    0.374506    0.636721     0.008887
CU2852   CU        0.212459    0.416338    0.619118     0.006663
AG2853   AG        0.232495    0.390082    0.599383     0.008887
CU2854   CU        0.223928    0.420568    0.641455     0.006663
CU2855   CU        0.295038    0.383066    0.634656     0.006663
AG2856   AG        0.263925    0.420154    0.623542     0.008887
CU2857   CU        0.308618    0.349817    0.584866     0.006663
CU2858   CU        0.310341    0.416858    0.625874     0.006663
CU2859   CU        0.339211    0.373180    0.633016     0.006663
AG2860   AG        0.342572    0.412669    0.618738     0.008887
AG2861   AG        0.379018    0.387766    0.606025     0.008887
AG2862   AG        0.387831    0.413848    0.640682     0.008887
AG2863   AG        0.429227    0.384102    0.625447     0.008887
CU2864   CU        0.414619    0.418700    0.598181     0.006663
CU2865   CU        0.439499    0.381642    0.590726     0.006663
AG2866   AG        0.462755    0.416212    0.615305     0.008887
AG2867   AG        0.472543    0.392160    0.650678     0.008887
AG2868   AG        0.478840    0.369397    0.606502     0.008887
CU2869   CU        0.511491    0.410581    0.592240     0.006663
CU2870   CU        0.511466    0.383378    0.632299     0.006663
AG2871   AG        0.553876    0.380590    0.636816     0.008887
AG2872   AG        0.588792    0.435214    0.588002     0.008887
CU2873   CU        0.597884    0.390894    0.600493     0.006663
AG2874   AG        0.607851    0.417290    0.633037     0.008887
AG2875   AG        0.643275    0.377329    0.624945     0.008887
AG2876   AG        0.641056    0.414158    0.592161     0.008887
AG2877   AG        0.666768    0.376512    0.584815     0.008887
AG2878   AG        0.681352    0.403113    0.622851     0.008887
AG2879   AG        0.717260    0.375741    0.646578     0.008887
AG2880   AG        0.703251    0.402899    0.581375     0.008887
AG2881   AG        0.745248    0.378816    0.591012     0.008887
AG2882   AG        0.730174    0.414761    0.624173     0.008887
AG2883   AG        0.765769    0.377950    0.635899     0.008887
AG2884   AG        0.773428    0.413931    0.601314     0.008887
AG2885   AG        0.802918    0.374444    0.598484     0.008887
AG2886   AG        0.807818    0.405210    0.634969     0.008887
CU2887   CU        0.848072    0.398863    0.605282     0.006663
CU2888   CU        0.102390    0.436225    0.600536     0.006663
CU2889   CU        0.051251    0.439007    0.591895     0.006663
AG2890   AG        0.101415    0.428013    0.590548     0.008887
AG2891   AG        0.121467    0.482928    0.617064     0.008887
AG2892   AG        0.135300    0.438320    0.627920     0.008887
AG2893   AG        0.141536    0.464482    0.581098     0.008887
CU2894   CU        0.180305    0.452392    0.622700     0.006663
CU2895   CU        0.171825    0.469228    0.623200     0.006663
CU2896   CU        0.176828    0.450345    0.612329     0.006663
AG2897   AG        0.205229    0.471284    0.584137     0.008887
CU2898   CU        0.262567    0.428006    0.603428     0.006663
CU2899   CU        0.238295    0.499045    0.598041     0.006663
CU2900   CU        0.249124    0.461301    0.639218     0.006663
AG2901   AG        0.279958    0.466632    0.604335     0.008887
CU2902   CU        0.325762    0.445805    0.594948     0.006663
CU2903   CU        0.311385    0.481798    0.640915     0.006663
AG2904   AG        0.349820    0.445667    0.636979     0.008887
AG2905   AG        0.356342    0.486493    0.603028     0.008887
AG2906   AG        0.379474    0.446230    0.606013     0.008887
AG2907   AG        0.387935    0.478269    0.642044     0.008887
AG2908   AG        0.424828    0.457184    0.621241     0.008887
AG2909   AG        0.397895    0.490657    0.591671     0.008887
CU2910   CU        0.437964    0.430329    0.578356     0.006663
AG2911   AG        0.458294    0.481949    0.639126     0.008887
CU2912   CU        0.497666    0.436630    0.638455     0.006663
AG2913   AG        0.498223    0.485674    0.619608     0.008887
CU2914   CU        0.513952    0.445057    0.596052     0.006663
CU2915   CU        0.540993    0.481064    0.629983     0.006663
CU2916   CU        0.580006    0.461873    0.630734     0.006663
CU2917   CU        0.575608    0.470657    0.614085     0.006663
AG2918   AG        0.604103    0.437499    0.586545     0.008887
AG2919   AG        0.617177    0.461447    0.623564     0.008887
CU2920   CU        0.655485    0.438058    0.643895     0.006663
AG2921   AG        0.646981    0.466326    0.584341     0.008887
CU2922   CU        0.677756    0.437491    0.578927     0.006663
AG2923   AG        0.658142    0.479957    0.628288     0.008887
AG2924   AG        0.699028    0.450062    0.627062     0.008887
AG2925   AG        0.694946    0.479970    0.594649     0.008887
AG2926   AG        0.739355    0.454938    0.595485     0.008887
AG2927   AG        0.728904    0.491429    0.632694     0.008887
CU2928   CU        0.775281    0.435222    0.641045     0.006663
AG2929   AG        0.781552    0.475985    0.617471     0.008887
AG2930   AG        0.817002    0.442810    0.611601     0.008887
CU2931   CU        0.831728    0.482714    0.618943     0.006663
CU2932   CU        0.879505    0.462312    0.631034     0.006663
CU2933   CU        0.839408    0.490966    0.615783     0.006663
CU2934   CU        0.082893    0.530467    0.564693     0.006663
CU2935   CU        0.110639    0.502722    0.569833     0.006663
CU2936   CU        0.097610    0.559313    0.639716     0.006663
AG2937   AG        0.136483    0.529461    0.624103     0.008887
AG2938   AG        0.123790    0.558326    0.594590     0.008887
AG2939   AG        0.170645    0.508818    0.587051     0.008887
CU2940   CU        0.176861    0.546834    0.649300     0.006663
CU2941   CU        0.203543    0.504798    0.621586     0.006663
AG2942   AG        0.200345    0.550807    0.594427     0.008887
CU2943   CU        0.249700    0.500777    0.589199     0.006663
AG2944   AG        0.236320    0.539875    0.618436     0.008887
AG2945   AG        0.272869    0.506103    0.634389     0.008887
CU2946   CU        0.287852    0.556952    0.596744     0.006663
AG2947   AG        0.318837    0.518674    0.611726     0.008887
CU2948   CU        0.316753    0.564048    0.631289     0.006663
CU2949   CU        0.351553    0.510620    0.642553     0.006663
AG2950   AG        0.339674    0.562209    0.591780     0.008887
AG2951   AG        0.370352    0.528864    0.609545     0.008887
CU2952   CU        0.396852    0.552913    0.647656     0.006663
CU2953   CU        0.423549    0.514052    0.632900     0.006663
AG2954   AG        0.417343    0.545353    0.605219     0.008887
CU2955   CU        0.471479    0.524061    0.581253     0.006663
CU2956   CU        0.461792    0.563652    0.598848     0.006663
CU2957   CU        0.498052    0.529794    0.644013     0.006663
CU2958   CU        0.485251    0.544738    0.601437     0.006663
CU2959   CU        0.554280    0.508101    0.589908     0.006663
AG2960   AG        0.536024    0.544251    0.618451     0.008887
AG2961   AG        0.544165    0.499917    0.638056     0.008887
AG2962   AG        0.566387    0.552731    0.580602     0.008887
CU2963   CU        0.618940    0.503572    0.604923     0.006663
AG2964   AG        0.617274    0.542961    0.644062     0.008887
CU2965   CU        0.614109    0.510732    0.611865     0.006663
CU2966   CU        0.644383    0.552367    0.609780     0.006663
CU2967   CU        0.686006    0.523566    0.621754     0.006663
CU2968   CU        0.669552    0.563867    0.647252     0.006663
CU2969   CU        0.687784    0.512519    0.630497     0.006663
AG2970   AG        0.706567    0.568506    0.609980     0.008887
AG2971   AG        0.753399    0.505534    0.585999     0.008887
AG2972   AG        0.722963    0.542325    0.639988     0.008887
AG2973   AG        0.765166    0.519435    0.631142     0.008887
AG2974   AG        0.755374    0.549958    0.594556     0.008887
AG2975   AG        0.797847    0.516324    0.599131     0.008887
CU2976   CU        0.784612    0.561628    0.629354     0.006663
CU2977   CU        0.830155    0.537118    0.622562     0.006663
CU2978   CU        0.103137    0.600857    0.593667     0.006663
CU2979   CU        0.140351    0.579325    0.636566     0.006663
AG2980   AG        0.149306    0.625463    0.586599     0.008887
AG2981   AG        0.172352    0.585409    0.601897     0.008887
AG2982   AG        0.172145    0.621593    0.636269     0.008887
CU2983   CU        0.205813    0.583338    0.637990     0.006663
AG2984   AG        0.199448    0.630301    0.594867     0.008887
CU2985   CU        0.224288    0.592329    0.605863     0.006663
AG2986   AG        0.235427    0.628578    0.626430     0.008887
CU2987   CU        0.273226    0.595016    0.616727     0.006663
AG2988   AG        0.285223    0.634581    0.581935     0.008887
CU2989   CU        0.318251    0.600575    0.604246     0.006663
CU2990   CU        0.332368    0.633233    0.654027     0.006663
AG2991   AG        0.363428    0.577136    0.632551     0.008887
CU2992   CU        0.358187    0.610978    0.600945     0.006663
AG2993   AG        0.364853    0.603331    0.592710     0.008887
AG2994   AG        0.406650    0.609218    0.662021     0.008887
AG2995   AG        0.432080    0.580061    0.636972     0.008887
CU2996   CU        0.415377    0.648065    0.595393     0.006663
CU2997   CU        0.463055    0.585945    0.602003     0.006663
CU2998   CU        0.438826    0.624423    0.614168     0.006663
AG2999   AG        0.498059    0.572131    0.634992     0.008887
CU3000   CU        0.510491    0.608875    0.576267     0.006663
AG3001   AG        0.547412    0.590094    0.597768     0.008887
CU3002   CU        0.526778    0.660487    0.638478     0.006663
AG3003   AG        0.547442    0.577630    0.649267     0.008887
AG3004   AG        0.577153    0.627587    0.606329     0.008887
CU3005   CU        0.599188    0.578779    0.603065     0.006663
AG3006   AG        0.604915    0.632900    0.646974     0.008887
AG3007   AG        0.625648    0.592808    0.636495     0.008887
AG3008   AG        0.623912    0.626120    0.598554     0.008887
AG3009   AG        0.667833    0.595549    0.610844     0.008887
AG3010   AG        0.664922    0.640365    0.606680     0.008887
CU3011   CU        0.708094    0.630308    0.628775     0.006663
AG3012   AG        0.701889    0.614866    0.586038     0.008887
AG3013   AG        0.744201    0.595121    0.605130     0.008887
CU3014   CU        0.722073    0.632040    0.629632     0.006663
CU3015   CU        0.784084    0.610542    0.629639     0.006663
AG3016   AG        0.782123    0.614138    0.581398     0.008887
CU3017   CU        0.791442    0.602940    0.585650     0.006663
CU3018   CU        0.129695    0.643966    0.629335     0.006663
CU3019   CU        0.122473    0.695956    0.610936     0.006663
CU3020   CU        0.155759    0.661097    0.586252     0.006663
CU3021   CU        0.171696    0.697990    0.615417     0.006663
AG3022   AG        0.200447    0.663530    0.631073     0.008887
AG3023   AG        0.198062    0.680680    0.589455     0.008887
AG3024   AG        0.236918    0.659364    0.586590     0.008887
CU3025   CU        0.245292    0.687816    0.625997     0.006663
CU3026   CU        0.278353    0.661490    0.622285     0.006663
CU3027   CU        0.278934    0.691092    0.591326     0.006663
CU3028   CU        0.328663    0.642261    0.602925     0.006663
AG3029   AG        0.327541    0.676804    0.632461     0.008887
CU3030   CU        0.358359    0.646720    0.642686     0.006663
AG3031   AG        0.337620    0.711821    0.606890     0.008887
CU3032   CU        0.394125    0.644917    0.604966     0.006663
CU3033   CU        0.427349    0.695334    0.631488     0.006663
CU3034   CU        0.406596    0.659879    0.647967     0.006663
CU3035   CU        0.417973    0.692913    0.583638     0.006663
AG3036   AG        0.464198    0.662666    0.591207     0.008887
CU3037   CU        0.464724    0.710146    0.618665     0.006663
CU3038   CU        0.490304    0.623456    0.636482     0.006663
CU3039   CU        0.473193    0.687751    0.601943     0.006663
CU3040   CU        0.527762    0.643064    0.611560     0.006663
AG3041   AG        0.538557    0.704009    0.636648     0.008887
AG3042   AG        0.533431    0.634975    0.615774     0.008887
AG3043   AG        0.548994    0.678069    0.593439     0.008887
AG3044   AG        0.592930    0.664406    0.585454     0.008887
CU3045   CU        0.622510    0.679598    0.638845     0.006663
AG3046   AG        0.627788    0.673139    0.623173     0.008887
CU3047   CU        0.630732    0.676227    0.608160     0.006663
CU3048   CU        0.666970    0.649689    0.600406     0.006663
AG3049   AG        0.673121    0.685390    0.630770     0.008887
CU3050   CU        0.705848    0.645143    0.629672     0.006663
CU3051   CU        0.719952    0.709948    0.624104     0.006663
CU3052   CU        0.766571    0.654948    0.610365     0.006663
CU3053   CU        0.726887    0.683414    0.638142     0.006663
CU3054   CU        0.814938    0.641775    0.607921     0.006663
CU3055   CU        0.773463    0.691319    0.579035     0.006663
CU3056   CU        0.153010    0.741829    0.614625     0.006663
CU3057   CU        0.197057    0.734590    0.644150     0.006663
CU3058   CU        0.196397    0.757471    0.598285     0.006663
CU3059   CU        0.243708    0.703763    0.601448     0.006663
CU3060   CU        0.216635    0.784239    0.638793     0.006663
AG3061   AG        0.287915    0.716788    0.614809     0.008887
AG3062   AG        0.281511    0.766758    0.602920     0.008887
AG3063   AG        0.309578    0.725331    0.574221     0.008887
CU3064   CU        0.309660    0.780200    0.638991     0.006663
CU3065   CU        0.346170    0.719296    0.613776     0.006663
AG3066   AG        0.334952    0.761434    0.601642     0.008887
CU3067   CU        0.410173    0.742283    0.588553     0.006663
AG3068   AG        0.384807    0.773393    0.614997     0.008887
AG3069   AG        0.426578    0.746366    0.637702     0.008887
AG3070   AG        0.432103    0.784371    0.608266     0.008887
CU3071   CU        0.462595    0.705609    0.605594     0.006663
CU3072   CU        0.470290    0.759402    0.618302     0.006663
AG3073   AG        0.491744    0.703344    0.653401     0.008887
AG3074   AG        0.488505    0.761920    0.559040     0.008887
AG3075   AG        0.541501    0.728656    0.598461     0.008887
CU3076   CU        0.520097    0.766499    0.614269     0.006663
AG3077   AG        0.586263    0.706597    0.615739     0.008887
AG3078   AG        0.559543    0.776803    0.592420     0.008887
CU3079   CU        0.616205    0.767848    0.618247     0.006663
CU3080   CU        0.595272    0.752601    0.614138     0.006663
AG3081   AG        0.636696    0.722506    0.617104     0.008887
CU3082   CU        0.661531    0.759986    0.609209     0.006663
AG3083   AG        0.681980    0.729665    0.637202     0.008887
CU3084   CU        0.686008    0.777159    0.640356     0.006663
CU3085   CU        0.705344    0.754792    0.602473     0.006663
CU3086   CU        0.710280    0.776132    0.596458     0.006663
CU3087   CU        0.749473    0.744360    0.604688     0.006663
CU3088   CU        0.314435    0.809382    0.604485     0.006663
CU3089   CU        0.354054    0.799628    0.627813     0.006663
CU3090   CU        0.342776    0.850985    0.614262     0.006663
CU3091   CU        0.392436    0.808596    0.579534     0.006663
CU3092   CU        0.408314    0.792820    0.646973     0.006663
CU3093   CU        0.431369    0.840204    0.590703     0.006663
AG3094   AG        0.463585    0.803859    0.575710     0.008887
CU3095   CU        0.448897    0.829669    0.631291     0.006663
CU3096   CU        0.491862    0.800995    0.640534     0.006663
CU3097   CU        0.489166    0.834797    0.597478     0.006663
CU3098   CU        0.486357    0.842408    0.552139     0.006663
CU3099   CU        0.547518    0.802877    0.629743     0.006663
CU3100   CU        0.566475    0.823706    0.584305     0.006663
CU3101   CU        0.570198    0.798705    0.591754     0.006663
CU3102   CU        0.278498    0.150052    0.644454     0.006663
CU3103   CU        0.322814    0.125289    0.715437     0.006663
CU3104   CU        0.376186    0.135886    0.668868     0.006663
CU3105   CU        0.368123    0.121451    0.680910     0.006663
CU3106   CU        0.376378    0.109575    0.711925     0.006663
AG3107   AG        0.418453    0.114342    0.662673     0.008887
AG3108   AG        0.467025    0.097824    0.661511     0.008887
AG3109   AG        0.456117    0.138618    0.680837     0.008887
AG3110   AG        0.497354    0.136398    0.648991     0.008887
CU3111   CU        0.534644    0.096333    0.668271     0.006663
CU3112   CU        0.521868    0.133763    0.694879     0.006663
CU3113   CU        0.572619    0.143570    0.664343     0.006663
AG3114   AG        0.566781    0.124622    0.711529     0.008887
CU3115   CU        0.615778    0.122982    0.648489     0.006663
CU3116   CU        0.216946    0.213925    0.658495     0.006663
AG3117   AG        0.247633    0.180669    0.681095     0.008887
CU3118   CU        0.284688    0.194364    0.735421     0.006663
AG3119   AG        0.288716    0.157182    0.702745     0.008887
AG3120   AG        0.291136    0.190882    0.668280     0.008887
AG3121   AG        0.325651    0.152082    0.671332     0.008887
AG3122   AG        0.321010    0.198876    0.701113     0.008887
AG3123   AG        0.356792    0.164338    0.708085     0.008887
AG3124   AG        0.345311    0.192057    0.663298     0.008887
AG3125   AG        0.376732    0.151689    0.667608     0.008887
CU3126   CU        0.377767    0.208315    0.692164     0.006663
AG3127   AG        0.407448    0.141123    0.700998     0.008887
CU3128   CU        0.408264    0.188600    0.663380     0.006663
AG3129   AG        0.442328    0.184454    0.695497     0.008887
CU3130   CU        0.455425    0.196797    0.713269     0.006663
AG3131   AG        0.488502    0.164900    0.693566     0.008887
AG3132   AG        0.496446    0.206033    0.664305     0.008887
AG3133   AG        0.525757    0.171684    0.658854     0.008887
AG3134   AG        0.521834    0.197896    0.703161     0.008887
CU3135   CU        0.568894    0.173427    0.701360     0.006663
AG3136   AG        0.570202    0.185497    0.641070     0.008887
CU3137   CU        0.619874    0.147242    0.658253     0.006663
CU3138   CU        0.598490    0.204842    0.736316     0.006663
CU3139   CU        0.611361    0.147638    0.709108     0.006663
AG3140   AG        0.640354    0.223857    0.643625     0.008887
CU3141   CU        0.689095    0.163221    0.638295     0.006663
CU3142   CU        0.664296    0.193787    0.673447     0.006663
CU3143   CU        0.712281    0.191935    0.651560     0.006663
CU3144   CU        0.135992    0.280484    0.661539     0.006663
CU3145   CU        0.154977    0.227086    0.653984     0.006663
CU3146   CU        0.151127    0.267859    0.717962     0.006663
CU3147   CU        0.184495    0.224126    0.698782     0.006663
CU3148   CU        0.198192    0.259297    0.675095     0.006663
CU3149   CU        0.207299    0.237558    0.687513     0.006663
AG3150   AG        0.240027    0.263680    0.706819     0.008887
AG3151   AG        0.285871    0.237847    0.709567     0.008887
AG3152   AG        0.276886    0.269914    0.669333     0.008887
CU3153   CU        0.334776    0.234975    0.655177     0.006663
AG3154   AG        0.312008    0.279616    0.707908     0.008887
AG3155   AG        0.341478    0.243909    0.702528     0.008887
CU3156   CU        0.332225    0.284890    0.668114     0.006663
AG3157   AG        0.376865    0.228888    0.680310     0.008887
AG3158   AG        0.387192    0.270923    0.702831     0.008887
AG3159   AG        0.419980    0.227240    0.695161     0.008887
AG3160   AG        0.414354    0.264602    0.662026     0.008887
AG3161   AG        0.454715    0.229009    0.671737     0.008887
AG3162   AG        0.449937    0.264677    0.696001     0.008887
AG3163   AG        0.483828    0.232882    0.708059     0.008887
CU3164   CU        0.511433    0.263990    0.634413     0.006663
CU3165   CU        0.546805    0.218159    0.665641     0.006663
CU3166   CU        0.520666    0.249136    0.683969     0.006663
CU3167   CU        0.573672    0.236977    0.696109     0.006663
AG3168   AG        0.549271    0.265417    0.674524     0.008887
CU3169   CU        0.596209    0.248236    0.659010     0.006663
CU3170   CU        0.612040    0.274974    0.700972     0.006663
CU3171   CU        0.618164    0.222979    0.719272     0.006663
CU3172   CU        0.609650    0.246962    0.672223     0.006663
CU3173   CU        0.683052    0.219224    0.671127     0.006663
AG3174   AG        0.674744    0.263849    0.699705     0.008887
CU3175   CU        0.661509    0.217870    0.718349     0.006663
AG3176   AG        0.708480    0.254127    0.660866     0.008887
AG3177   AG        0.739897    0.223966    0.672124     0.008887
CU3178   CU        0.741697    0.256884    0.704300     0.006663
CU3179   CU        0.758091    0.257522    0.651073     0.006663
CU3180   CU        0.137416    0.289733    0.718132     0.006663
CU3181   CU        0.143022    0.328060    0.667679     0.006663
AG3182   AG        0.180634    0.303610    0.654389     0.008887
CU3183   CU        0.187510    0.339520    0.706983     0.006663
CU3184   CU        0.172667    0.261339    0.676888     0.006663
AG3185   AG        0.214970    0.357510    0.675853     0.008887
AG3186   AG        0.221340    0.325892    0.638032     0.008887
AG3187   AG        0.240122    0.352298    0.718235     0.008887
AG3188   AG        0.270012    0.298572    0.708690     0.008887
CU3189   CU        0.279954    0.352101    0.664222     0.006663
AG3190   AG        0.297966    0.313686    0.669956     0.008887
AG3191   AG        0.301749    0.337359    0.706625     0.008887
AG3192   AG        0.351053    0.305253    0.707424     0.008887
AG3193   AG        0.341102    0.339854    0.670577     0.008887
AG3194   AG        0.374294    0.301010    0.661279     0.008887
CU3195   CU        0.410570    0.353595    0.698500     0.006663
AG3196   AG        0.416978    0.306120    0.689431     0.008887
AG3197   AG        0.416733    0.345142    0.662781     0.008887
AG3198   AG        0.462293    0.310471    0.679303     0.008887
AG3199   AG        0.445798    0.339842    0.719469     0.008887
CU3200   CU        0.497767    0.283222    0.678825     0.006663
AG3201   AG        0.493274    0.343108    0.665058     0.008887
CU3202   CU        0.544685    0.313524    0.687923     0.006663
AG3203   AG        0.532637    0.321361    0.687339     0.008887
CU3204   CU        0.570514    0.301964    0.699489     0.006663
AG3205   AG        0.572227    0.344448    0.664507     0.008887
CU3206   CU        0.605020    0.317953    0.646424     0.006663
AG3207   AG        0.611010    0.323224    0.693561     0.008887
CU3208   CU        0.643782    0.304384    0.673471     0.006663
AG3209   AG        0.649952    0.332231    0.663220     0.008887
AG3210   AG        0.684957    0.295805    0.671566     0.008887
CU3211   CU        0.664543    0.335454    0.707767     0.006663
CU3212   CU        0.711846    0.293666    0.713368     0.006663
AG3213   AG        0.698920    0.343468    0.670923     0.008887
CU3214   CU        0.730870    0.301212    0.660083     0.006663
CU3215   CU        0.730895    0.346450    0.705396     0.006663
CU3216   CU        0.773403    0.327737    0.718965     0.006663
CU3217   CU        0.773141    0.311741    0.671376     0.006663
AG3218   AG        0.118479    0.365122    0.655812     0.008887
CU3219   CU        0.138609    0.367103    0.700793     0.006663
AG3220   AG        0.131958    0.412638    0.669599     0.008887
AG3221   AG        0.164932    0.370428    0.675843     0.008887
AG3222   AG        0.166137    0.410004    0.707902     0.008887
AG3223   AG        0.211839    0.387720    0.713687     0.008887
AG3224   AG        0.199010    0.406001    0.668479     0.008887
AG3225   AG        0.245380    0.374075    0.640786     0.008887
AG3226   AG        0.240420    0.398682    0.698742     0.008887
AG3227   AG        0.280322    0.383990    0.713642     0.008887
CU3228   CU        0.249015    0.388905    0.680315     0.006663
AG3229   AG        0.313391    0.381853    0.683354     0.008887
AG3230   AG        0.309445    0.430319    0.704816     0.008887
AG3231   AG        0.374956    0.378563    0.682679     0.008887
AG3232   AG        0.339288    0.412817    0.668519     0.008887
CU3233   CU        0.377695    0.374704    0.668610     0.006663
AG3234   AG        0.392730    0.422366    0.711541     0.008887
AG3235   AG        0.415037    0.381132    0.711218     0.008887
AG3236   AG        0.416807    0.395978    0.670216     0.008887
AG3237   AG        0.454220    0.362834    0.679979     0.008887
AG3238   AG        0.454428    0.410090    0.695720     0.008887
AG3239   AG        0.495208    0.381184    0.697642     0.008887
CU3240   CU        0.489246    0.419439    0.665321     0.006663
AG3241   AG        0.534175    0.364094    0.675139     0.008887
AG3242   AG        0.539691    0.400119    0.709029     0.008887
AG3243   AG        0.567263    0.349501    0.711937     0.008887
AG3244   AG        0.572762    0.388550    0.680429     0.008887
AG3245   AG        0.614893    0.366972    0.664754     0.008887
CU3246   CU        0.614194    0.413903    0.687252     0.006663
AG3247   AG        0.643722    0.376033    0.704646     0.008887
CU3248   CU        0.628978    0.411023    0.669100     0.006663
AG3249   AG        0.669623    0.381179    0.664080     0.008887
AG3250   AG        0.665507    0.416013    0.700466     0.008887
AG3251   AG        0.695509    0.382613    0.703122     0.008887
AG3252   AG        0.701625    0.421430    0.661224     0.008887
CU3253   CU        0.727424    0.384952    0.667491     0.006663
CU3254   CU        0.762689    0.376353    0.707723     0.006663
CU3255   CU        0.778378    0.375325    0.727346     0.006663
CU3256   CU        0.792838    0.444063    0.654073     0.006663
CU3257   CU        0.834875    0.362106    0.634975     0.006663
AG3258   AG        0.112074    0.459206    0.661056     0.008887
CU3259   CU        0.133205    0.450605    0.705915     0.006663
CU3260   CU        0.155321    0.460603    0.663128     0.006663
AG3261   AG        0.165940    0.443595    0.669845     0.008887
AG3262   AG        0.179175    0.476510    0.702083     0.008887
AG3263   AG        0.205233    0.436792    0.701609     0.008887
AG3264   AG        0.206990    0.466957    0.661301     0.008887
CU3265   CU        0.253263    0.459112    0.647768     0.006663
CU3266   CU        0.235991    0.478375    0.687944     0.006663
CU3267   CU        0.265790    0.449992    0.693771     0.006663
CU3268   CU        0.264327    0.461528    0.645958     0.006663
CU3269   CU        0.306867    0.450862    0.661156     0.006663
AG3270   AG        0.310853    0.479221    0.692732     0.008887
AG3271   AG        0.350898    0.450110    0.703408     0.008887
AG3272   AG        0.340432    0.491072    0.651305     0.008887
CU3273   CU        0.380131    0.425720    0.666841     0.006663
AG3274   AG        0.391486    0.469342    0.695274     0.008887
CU3275   CU        0.387922    0.425568    0.718591     0.006663
AG3276   AG        0.424923    0.480700    0.666746     0.008887
AG3277   AG        0.451025    0.439101    0.660650     0.008887
CU3278   CU        0.449369    0.499273    0.694059     0.006663
AG3279   AG        0.487313    0.460938    0.695804     0.008887
AG3280   AG        0.489014    0.499451    0.666418     0.008887
CU3281   CU        0.521209    0.458042    0.659981     0.006663
CU3282   CU        0.527809    0.482209    0.698822     0.006663
AG3283   AG        0.573426    0.437386    0.704497     0.008887
AG3284   AG        0.564290    0.477908    0.676109     0.008887
CU3285   CU        0.617039    0.454065    0.665125     0.006663
AG3286   AG        0.600972    0.480287    0.701387     0.008887
AG3287   AG        0.638710    0.455359    0.718187     0.008887
CU3288   CU        0.611565    0.460949    0.672614     0.006663
AG3289   AG        0.657808    0.445005    0.659345     0.008887
AG3290   AG        0.662915    0.496559    0.698918     0.008887
AG3291   AG        0.690155    0.453994    0.696089     0.008887
AG3292   AG        0.692517    0.475193    0.662539     0.008887
CU3293   CU        0.731228    0.440738    0.668227     0.006663
CU3294   CU        0.748252    0.495491    0.719967     0.006663
CU3295   CU        0.760885    0.449856    0.699586     0.006663
AG3296   AG        0.764947    0.478028    0.664836     0.008887
CU3297   CU        0.837702    0.454352    0.652054     0.006663
AG3298   AG        0.098717    0.509348    0.651512     0.008887
CU3299   CU        0.128421    0.527710    0.722252     0.006663
CU3300   CU        0.154443    0.567435    0.690006     0.006663
CU3301   CU        0.172458    0.502033    0.658613     0.006663
AG3302   AG        0.174871    0.529493    0.718881     0.008887
AG3303   AG        0.210459    0.519142    0.698742     0.008887
CU3304   CU        0.203038    0.562520    0.700038     0.006663
CU3305   CU        0.251656    0.496809    0.678981     0.006663
AG3306   AG        0.247550    0.544092    0.711735     0.008887
AG3307   AG        0.271199    0.515007    0.683065     0.008887
AG3308   AG        0.276681    0.549926    0.642771     0.008887
AG3309   AG        0.309500    0.524988    0.666459     0.008887
CU3310   CU        0.328476    0.548852    0.700014     0.006663
AG3311   AG        0.353453    0.505614    0.692616     0.008887
AG3312   AG        0.353954    0.541027    0.654287     0.008887
AG3313   AG        0.391318    0.514100    0.668896     0.008887
CU3314   CU        0.371828    0.555186    0.704728     0.006663
AG3315   AG        0.403819    0.514929    0.710757     0.008887
AG3316   AG        0.396744    0.564489    0.664471     0.008887
CU3317   CU        0.466510    0.510120    0.678569     0.006663
AG3318   AG        0.446734    0.541232    0.716380     0.008887
AG3319   AG        0.486154    0.520893    0.724726     0.008887
AG3320   AG        0.485808    0.548854    0.682970     0.008887
CU3321   CU        0.526055    0.495170    0.697780     0.006663
CU3322   CU        0.544346    0.535970    0.702389     0.006663
AG3323   AG        0.573362    0.515366    0.710060     0.008887
AG3324   AG        0.573604    0.544160    0.669853     0.008887
AG3325   AG        0.594762    0.499702    0.653698     0.008887
AG3326   AG        0.589387    0.556907    0.711510     0.008887
AG3327   AG        0.614485    0.525037    0.692367     0.008887
AG3328   AG        0.629560    0.567592    0.680948     0.008887
AG3329   AG        0.691861    0.518430    0.665588     0.008887
AG3330   AG        0.665711    0.542753    0.696971     0.008887
AG3331   AG        0.700428    0.501289    0.706665     0.008887
CU3332   CU        0.674813    0.563218    0.654781     0.006663
AG3333   AG        0.737270    0.518504    0.676217     0.008887
CU3334   CU        0.753369    0.543947    0.711378     0.006663
CU3335   CU        0.776357    0.499857    0.704608     0.006663
CU3336   CU        0.779296    0.533639    0.671448     0.006663
CU3337   CU        0.810294    0.495995    0.654599     0.006663
CU3338   CU        0.140713    0.570945    0.718899     0.006663
CU3339   CU        0.141654    0.616388    0.675510     0.006663
AG3340   AG        0.185199    0.601308    0.681882     0.008887
CU3341   CU        0.199820    0.623813    0.721173     0.006663
AG3342   AG        0.206789    0.571449    0.715388     0.008887
AG3343   AG        0.208644    0.636888    0.670117     0.008887
CU3344   CU        0.243082    0.604215    0.656757     0.006663
CU3345   CU        0.267353    0.618171    0.696625     0.006663
AG3346   AG        0.280835    0.562877    0.689926     0.008887
CU3347   CU        0.288636    0.601334    0.659145     0.006663
AG3348   AG        0.320146    0.574038    0.660014     0.008887
CU3349   CU        0.312910    0.609173    0.693342     0.006663
CU3350   CU        0.355559    0.604793    0.713587     0.006663
CU3351   CU        0.328712    0.623227    0.681678     0.006663
CU3352   CU        0.361795    0.591264    0.675898     0.006663
AG3353   AG        0.404447    0.605357    0.708125     0.008887
AG3354   AG        0.442432    0.578277    0.687437     0.008887
CU3355   CU        0.405059    0.626825    0.642508     0.006663
AG3356   AG        0.454284    0.619902    0.663026     0.008887
AG3357   AG        0.455017    0.614816    0.718117     0.008887
AG3358   AG        0.491456    0.597789    0.689077     0.008887
CU3359   CU        0.504811    0.618786    0.645068     0.006663
CU3360   CU        0.509280    0.587536    0.674776     0.006663
AG3361   AG        0.537825    0.617182    0.699911     0.008887
CU3362   CU        0.566686    0.576169    0.709344     0.006663
AG3363   AG        0.555558    0.623325    0.654624     0.008887
AG3364   AG        0.589040    0.590028    0.673830     0.008887
CU3365   CU        0.603218    0.602565    0.715171     0.006663
AG3366   AG        0.657356    0.595272    0.711485     0.008887
AG3367   AG        0.633301    0.614066    0.677543     0.008887
CU3368   CU        0.666239    0.586935    0.700717     0.006663
AG3369   AG        0.672882    0.637698    0.694615     0.008887
AG3370   AG        0.702731    0.607866    0.719166     0.008887
AG3371   AG        0.713966    0.637296    0.677399     0.008887
AG3372   AG        0.710451    0.560830    0.684811     0.008887
CU3373   CU        0.751977    0.628653    0.712585     0.006663
CU3374   CU        0.779578    0.587770    0.709121     0.006663
CU3375   CU        0.758341    0.635376    0.698671     0.006663
CU3376   CU        0.163558    0.649963    0.662843     0.006663
CU3377   CU        0.218763    0.670286    0.706556     0.006663
CU3378   CU        0.198456    0.681974    0.654720     0.006663
AG3379   AG        0.254558    0.655328    0.664670     0.008887
CU3380   CU        0.252248    0.698701    0.678470     0.006663
AG3381   AG        0.268128    0.666647    0.712922     0.008887
CU3382   CU        0.283963    0.755011    0.649822     0.006663
AG3383   AG        0.296980    0.649775    0.668749     0.008887
AG3384   AG        0.348827    0.720855    0.693982     0.008887
CU3385   CU        0.340742    0.670266    0.687160     0.006663
AG3386   AG        0.335916    0.675850    0.678647     0.008887
AG3387   AG        0.376546    0.639382    0.680287     0.008887
AG3388   AG        0.384187    0.687593    0.705409     0.008887
AG3389   AG        0.418017    0.646465    0.693771     0.008887
AG3390   AG        0.449662    0.719090    0.680755     0.008887
AG3391   AG        0.459981    0.665384    0.644322     0.008887
CU3392   CU        0.457472    0.677683    0.697760     0.006663
AG3393   AG        0.475078    0.678244    0.693496     0.008887
CU3394   CU        0.496660    0.702019    0.684505     0.006663
CU3395   CU        0.521624    0.659268    0.652929     0.006663
AG3396   AG        0.522603    0.665588    0.703014     0.008887
CU3397   CU        0.582408    0.693381    0.702471     0.006663
CU3398   CU        0.567819    0.715300    0.676504     0.006663
CU3399   CU        0.599640    0.682780    0.657017     0.006663
CU3400   CU        0.574808    0.686328    0.705812     0.006663
AG3401   AG        0.634590    0.639932    0.721090     0.008887
AG3402   AG        0.650532    0.705264    0.663875     0.008887
AG3403   AG        0.665002    0.645287    0.649468     0.008887
CU3404   CU        0.688053    0.683874    0.675034     0.006663
CU3405   CU        0.714132    0.652210    0.721045     0.006663
CU3406   CU        0.689927    0.675395    0.673677     0.006663
CU3407   CU        0.736017    0.671244    0.647310     0.006663
CU3408   CU        0.232736    0.697214    0.668985     0.006663
CU3409   CU        0.279994    0.737181    0.690354     0.006663
CU3410   CU        0.246071    0.774145    0.677150     0.006663
AG3411   AG        0.318148    0.720105    0.653370     0.008887
CU3412   CU        0.349684    0.796427    0.683279     0.006663
CU3413   CU        0.318992    0.762502    0.686272     0.006663
CU3414   CU        0.353537    0.750629    0.648243     0.006663
AG3415   AG        0.404839    0.712771    0.666419     0.008887
CU3416   CU        0.384195    0.771478    0.716100     0.006663
AG3417   AG        0.415894    0.727458    0.715533     0.008887
AG3418   AG        0.421198    0.758101    0.682232     0.008887
AG3419   AG        0.449305    0.714374    0.666292     0.008887
AG3420   AG        0.461824    0.759155    0.705003     0.008887
AG3421   AG        0.490824    0.719236    0.696766     0.008887
AG3422   AG        0.484833    0.752596    0.664963     0.008887
AG3423   AG        0.525984    0.737435    0.675243     0.008887
CU3424   CU        0.528158    0.752265    0.691077     0.006663
CU3425   CU        0.540507    0.717839    0.717434     0.006663
CU3426   CU        0.562530    0.777598    0.672262     0.006663
AG3427   AG        0.607571    0.728949    0.654918     0.008887
CU3428   CU        0.604513    0.771241    0.676762     0.006663
CU3429   CU        0.628641    0.733800    0.698734     0.006663
CU3430   CU        0.641302    0.774509    0.706152     0.006663
CU3431   CU        0.661801    0.750314    0.673034     0.006663
CU3432   CU        0.380925    0.759919    0.666833     0.006663
AG3433   AG        0.453517    0.788878    0.652691     0.008887
CU3434   CU        0.529300    0.813164    0.618001     0.006663
CU3435   CU        0.415723    0.108584    0.740540     0.006663
CU3436   CU        0.482444    0.125079    0.725161     0.006663
CU3437   CU        0.272602    0.195209    0.715750     0.006663
CU3438   CU        0.317920    0.171920    0.737619     0.006663
CU3439   CU        0.316287    0.203367    0.777171     0.006663
AG3440   AG        0.350381    0.208274    0.737631     0.008887
CU3441   CU        0.394822    0.148335    0.745117     0.006663
CU3442   CU        0.386077    0.210106    0.775666     0.006663
CU3443   CU        0.421036    0.169087    0.775697     0.006663
AG3444   AG        0.418701    0.195977    0.736506     0.008887
AG3445   AG        0.438888    0.151888    0.731373     0.008887
CU3446   CU        0.468828    0.177153    0.770515     0.006663
CU3447   CU        0.498048    0.143053    0.768992     0.006663
CU3448   CU        0.497996    0.190369    0.739112     0.006663
CU3449   CU        0.524556    0.153476    0.727604     0.006663
AG3450   AG        0.536980    0.201368    0.756799     0.008887
CU3451   CU        0.573897    0.200567    0.730660     0.006663
CU3452   CU        0.603060    0.151763    0.734188     0.006663
AG3453   AG        0.575603    0.208646    0.782019     0.008887
CU3454   CU        0.645506    0.179166    0.733431     0.006663
AG3455   AG        0.221856    0.257008    0.751538     0.008887
AG3456   AG        0.265384    0.258924    0.749776     0.008887
CU3457   CU        0.242222    0.294131    0.784387     0.006663
CU3458   CU        0.275020    0.265766    0.804858     0.006663
CU3459   CU        0.272375    0.265903    0.737648     0.006663
AG3460   AG        0.308646    0.235866    0.737434     0.008887
CU3461   CU        0.318436    0.250332    0.788565     0.006663
CU3462   CU        0.351291    0.238922    0.765730     0.006663
AG3463   AG        0.350720    0.264845    0.740085     0.008887
AG3464   AG        0.386836    0.229077    0.728765     0.008887
AG3465   AG        0.389319    0.265116    0.767305     0.008887
CU3466   CU        0.401467    0.222271    0.777211     0.006663
CU3467   CU        0.425384    0.262309    0.733357     0.006663
CU3468   CU        0.426464    0.244250    0.740110     0.006663
AG3469   AG        0.470059    0.259650    0.746299     0.008887
AG3470   AG        0.488408    0.217313    0.771978     0.008887
CU3471   CU        0.473611    0.245411    0.716228     0.006663
AG3472   AG        0.518417    0.239221    0.736410     0.008887
AG3473   AG        0.534010    0.238703    0.781746     0.008887
AG3474   AG        0.570173    0.240991    0.746053     0.008887
CU3475   CU        0.575357    0.284121    0.718003     0.006663
CU3476   CU        0.615625    0.215697    0.747988     0.006663
AG3477   AG        0.578356    0.258067    0.792079     0.008887
CU3478   CU        0.627208    0.246934    0.779530     0.006663
CU3479   CU        0.645396    0.258184    0.735285     0.006663
CU3480   CU        0.675244    0.215667    0.722919     0.006663
CU3481   CU        0.665484    0.274522    0.777688     0.006663
CU3482   CU        0.727245    0.253542    0.746484     0.006663
CU3483   CU        0.177427    0.316522    0.746572     0.006663
CU3484   CU        0.198471    0.333893    0.751598     0.006663
CU3485   CU        0.225327    0.362272    0.726316     0.006663
AG3486   AG        0.236776    0.303108    0.737233     0.008887
AG3487   AG        0.238963    0.342798    0.769209     0.008887
CU3488   CU        0.291306    0.290693    0.770157     0.006663
AG3489   AG        0.278275    0.336107    0.746167     0.008887
AG3490   AG        0.307076    0.279960    0.765694     0.008887
AG3491   AG        0.324218    0.332131    0.768254     0.008887
CU3492   CU        0.355057    0.300978    0.768347     0.006663
CU3493   CU        0.361291    0.343710    0.735740     0.006663
AG3494   AG        0.390246    0.301925    0.738048     0.008887
AG3495   AG        0.377387    0.339570    0.777614     0.008887
AG3496   AG        0.408859    0.306534    0.779322     0.008887
AG3497   AG        0.411454    0.344909    0.747186     0.008887
AG3498   AG        0.449598    0.298878    0.727754     0.008887
AG3499   AG        0.457515    0.335841    0.763619     0.008887
CU3500   CU        0.483031    0.281008    0.790761     0.006663
AG3501   AG        0.494514    0.350362    0.738705     0.008887
AG3502   AG        0.536770    0.315746    0.739088     0.008887
AG3503   AG        0.524476    0.350322    0.773462     0.008887
AG3504   AG        0.544152    0.277329    0.758769     0.008887
AG3505   AG        0.543402    0.356804    0.723900     0.008887
CU3506   CU        0.589825    0.302557    0.740021     0.006663
AG3507   AG        0.575328    0.343184    0.762272     0.008887
CU3508   CU        0.651436    0.322421    0.776595     0.006663
AG3509   AG        0.622970    0.343112    0.739298     0.008887
CU3510   CU        0.673741    0.297824    0.732415     0.006663
CU3511   CU        0.659364    0.363908    0.796113     0.006663
CU3512   CU        0.673966    0.307973    0.750945     0.006663
AG3513   AG        0.704102    0.335994    0.718936     0.008887
CU3514   CU        0.737510    0.298596    0.723523     0.006663
CU3515   CU        0.127333    0.403647    0.733569     0.006663
CU3516   CU        0.209535    0.410209    0.735274     0.006663
CU3517   CU        0.160208    0.399510    0.768785     0.006663
AG3518   AG        0.207659    0.380886    0.772283     0.008887
CU3519   CU        0.202378    0.417778    0.747986     0.006663
AG3520   AG        0.249636    0.392870    0.744670     0.008887
AG3521   AG        0.239512    0.422047    0.776449     0.008887
AG3522   AG        0.301650    0.369766    0.780972     0.008887
CU3523   CU        0.302809    0.407477    0.752760     0.006663
AG3524   AG        0.316341    0.368546    0.733773     0.008887
AG3525   AG        0.320137    0.417077    0.775309     0.008887
AG3526   AG        0.345182    0.379416    0.772689     0.008887
AG3527   AG        0.346533    0.409429    0.732432     0.008887
AG3528   AG        0.377550    0.377484    0.732447     0.008887
AG3529   AG        0.394219    0.381753    0.799140     0.008887
AG3530   AG        0.430785    0.379944    0.764956     0.008887
CU3531   CU        0.430380    0.416480    0.732739     0.006663
AG3532   AG        0.464010    0.381193    0.733427     0.008887
AG3533   AG        0.481004    0.377494    0.781054     0.008887
CU3534   CU        0.488508    0.388754    0.769539     0.006663
AG3535   AG        0.512054    0.399337    0.732374     0.008887
AG3536   AG        0.511598    0.391747    0.748812     0.008887
CU3537   CU        0.523856    0.417979    0.773099     0.006663
CU3538   CU        0.553941    0.380035    0.758981     0.006663
AG3539   AG        0.561325    0.412468    0.746339     0.008887
AG3540   AG        0.599706    0.381768    0.738670     0.008887
CU3541   CU        0.623141    0.392290    0.783339     0.006663
CU3542   CU        0.634902    0.369185    0.773981     0.006663
AG3543   AG        0.636170    0.409647    0.744860     0.008887
AG3544   AG        0.676013    0.373433    0.742326     0.008887
AG3545   AG        0.666735    0.408097    0.779269     0.008887
CU3546   CU        0.706637    0.381158    0.780908     0.006663
AG3547   AG        0.701358    0.411548    0.742001     0.008887
AG3548   AG        0.728117    0.372806    0.741892     0.008887
CU3549   CU        0.753073    0.415082    0.726632     0.006663
CU3550   CU        0.770772    0.392432    0.769188     0.006663
AG3551   AG        0.147311    0.491007    0.739028     0.008887
AG3552   AG        0.169682    0.446572    0.742017     0.008887
CU3553   CU        0.163901    0.479177    0.784151     0.006663
AG3554   AG        0.206035    0.452581    0.777926     0.008887
AG3555   AG        0.197505    0.490100    0.739807     0.008887
AG3556   AG        0.233768    0.455513    0.734394     0.008887
CU3557   CU        0.245768    0.487064    0.773420     0.006663
AG3558   AG        0.282951    0.452393    0.780686     0.008887
AG3559   AG        0.281059    0.471341    0.733414     0.008887
AG3560   AG        0.319453    0.451303    0.746057     0.008887
AG3561   AG        0.300007    0.492980    0.766857     0.008887
CU3562   CU        0.363545    0.428375    0.753851     0.006663
CU3563   CU        0.366941    0.529298    0.741270     0.006663
AG3564   AG        0.400484    0.462862    0.743987     0.008887
AG3565   AG        0.371754    0.467101    0.777961     0.008887
CU3566   CU        0.424330    0.465725    0.786776     0.006663
AG3567   AG        0.441154    0.501077    0.744744     0.008887
CU3568   CU        0.431486    0.422815    0.739312     0.006663
CU3569   CU        0.476892    0.460930    0.781303     0.006663
AG3570   AG        0.475832    0.428517    0.739672     0.008887
AG3571   AG        0.503313    0.472035    0.739888     0.008887
CU3572   CU        0.527662    0.446416    0.731825     0.006663
AG3573   AG        0.535462    0.480307    0.773445     0.008887
AG3574   AG        0.563513    0.442462    0.787496     0.008887
AG3575   AG        0.564926    0.476333    0.732706     0.008887
AG3576   AG        0.598318    0.441875    0.750058     0.008887
AG3577   AG        0.587902    0.478562    0.779250     0.008887
CU3578   CU        0.624754    0.460568    0.760736     0.006663
AG3579   AG        0.617246    0.483359    0.743702     0.008887
CU3580   CU        0.676435    0.425208    0.731574     0.006663
CU3581   CU        0.704983    0.470056    0.792724     0.006663
CU3582   CU        0.709386    0.430356    0.762765     0.006663
AG3583   AG        0.699464    0.474594    0.744582     0.008887
CU3584   CU        0.754920    0.410515    0.747461     0.006663
CU3585   CU        0.775208    0.511382    0.776928     0.006663
CU3586   CU        0.792836    0.510607    0.733649     0.006663
CU3587   CU        0.170509    0.535912    0.727262     0.006663
CU3588   CU        0.213053    0.526381    0.749608     0.006663
AG3589   AG        0.210352    0.541823    0.745884     0.008887
AG3590   AG        0.248220    0.502866    0.727770     0.008887
AG3591   AG        0.257387    0.536500    0.757532     0.008887
CU3592   CU        0.287235    0.502109    0.766993     0.006663
CU3593   CU        0.287742    0.543422    0.727553     0.006663
AG3594   AG        0.295022    0.518709    0.720798     0.008887
CU3595   CU        0.323336    0.554654    0.784375     0.006663
AG3596   AG        0.347932    0.514313    0.781441     0.008887
AG3597   AG        0.334040    0.558686    0.753690     0.008887
CU3598   CU        0.365877    0.529511    0.742093     0.006663
AG3599   AG        0.373289    0.552744    0.783484     0.008887
AG3600   AG        0.410591    0.499636    0.778685     0.008887
AG3601   AG        0.411600    0.540631    0.752059     0.008887
AG3602   AG        0.485459    0.506976    0.718874     0.008887
AG3603   AG        0.466578    0.540041    0.760926     0.008887
AG3604   AG        0.489777    0.502030    0.766922     0.008887
CU3605   CU        0.511569    0.542116    0.755097     0.006663
AG3606   AG        0.531279    0.510315    0.735974     0.008887
CU3607   CU        0.507670    0.539961    0.785893     0.006663
CU3608   CU        0.567637    0.516539    0.762901     0.006663
AG3609   AG        0.562292    0.545531    0.749842     0.008887
AG3610   AG        0.610054    0.526765    0.743959     0.008887
AG3611   AG        0.597923    0.531236    0.789554     0.008887
AG3612   AG        0.631853    0.503499    0.784416     0.008887
AG3613   AG        0.639096    0.557965    0.729515     0.008887
AG3614   AG        0.661083    0.511435    0.742075     0.008887
CU3615   CU        0.666442    0.538540    0.775108     0.006663
CU3616   CU        0.713498    0.523256    0.754024     0.006663
CU3617   CU        0.684123    0.558420    0.735773     0.006663
CU3618   CU        0.742178    0.506933    0.736508     0.006663
CU3619   CU        0.170031    0.591923    0.729418     0.006663
CU3620   CU        0.213724    0.592887    0.755697     0.006663
CU3621   CU        0.215968    0.618201    0.714602     0.006663
CU3622   CU        0.245561    0.566246    0.754890     0.006663
CU3623   CU        0.256084    0.611780    0.778642     0.006663
CU3624   CU        0.305489    0.592994    0.772575     0.006663
AG3625   AG        0.287537    0.633478    0.746297     0.008887
AG3626   AG        0.334100    0.605024    0.735469     0.008887
CU3627   CU        0.306418    0.600570    0.779083     0.006663
AG3628   AG        0.355186    0.599922    0.780075     0.008887
CU3629   CU        0.377708    0.628227    0.745131     0.006663
AG3630   AG        0.378402    0.580623    0.745402     0.008887
CU3631   CU        0.389294    0.639533    0.780100     0.006663
AG3632   AG        0.443153    0.579964    0.753560     0.008887
AG3633   AG        0.423908    0.640254    0.741381     0.008887
AG3634   AG        0.479102    0.571494    0.726048     0.008887
CU3635   CU        0.463771    0.601291    0.767108     0.006663
AG3636   AG        0.488454    0.585297    0.769870     0.008887
CU3637   CU        0.504043    0.610510    0.733443     0.006663
CU3638   CU        0.566289    0.590977    0.734535     0.006663
CU3639   CU        0.526685    0.611686    0.773285     0.006663
CU3640   CU        0.581816    0.575649    0.777817     0.006663
AG3641   AG        0.562029    0.617674    0.743369     0.008887
AG3642   AG        0.611938    0.598385    0.716775     0.008887
AG3643   AG        0.602970    0.619265    0.762964     0.008887
CU3644   CU        0.633600    0.579893    0.770654     0.006663
CU3645   CU        0.676883    0.635344    0.744071     0.006663
AG3646   AG        0.680229    0.578845    0.749390     0.008887
CU3647   CU        0.646514    0.625389    0.782661     0.006663
CU3648   CU        0.697175    0.609334    0.775268     0.006663
CU3649   CU        0.714759    0.659802    0.713812     0.006663
CU3650   CU        0.730593    0.573761    0.751198     0.006663
CU3651   CU        0.237649    0.641483    0.746778     0.006663
CU3652   CU        0.267831    0.682702    0.766503     0.006663
AG3653   AG        0.305542    0.703130    0.705662     0.008887
CU3654   CU        0.304765    0.674263    0.742790     0.006663
CU3655   CU        0.320561    0.678040    0.784768     0.006663
AG3656   AG        0.338727    0.644226    0.762564     0.008887
AG3657   AG        0.347245    0.687981    0.731780     0.008887
AG3658   AG        0.378746    0.645940    0.729327     0.008887
AG3659   AG        0.394119    0.678314    0.757066     0.008887
CU3660   CU        0.435610    0.679902    0.773758     0.006663
AG3661   AG        0.403329    0.683355    0.735790     0.008887
CU3662   CU        0.448086    0.659015    0.728294     0.006663
CU3663   CU        0.442700    0.681237    0.765956     0.006663
CU3664   CU        0.516967    0.658878    0.766038     0.006663
AG3665   AG        0.499469    0.695949    0.734548     0.008887
AG3666   AG        0.546087    0.679582    0.743161     0.008887
CU3667   CU        0.528288    0.653853    0.746766     0.006663
AG3668   AG        0.562159    0.651463    0.775633     0.008887
CU3669   CU        0.576331    0.694314    0.750454     0.006663
AG3670   AG        0.590089    0.649437    0.727375     0.008887
CU3671   CU        0.615367    0.707832    0.774625     0.006663
CU3672   CU        0.598562    0.670905    0.742040     0.006663
CU3673   CU        0.624013    0.690745    0.731156     0.006663
CU3674   CU        0.671982    0.678493    0.722607     0.006663
CU3675   CU        0.329688    0.738608    0.730189     0.006663
AG3676   AG        0.372240    0.726346    0.736083     0.008887
AG3677   AG        0.416223    0.719860    0.764790     0.008887
CU3678   CU        0.463115    0.765193    0.753755     0.006663
AG3679   AG        0.454707    0.717374    0.730022     0.008887
CU3680   CU        0.500050    0.745749    0.735367     0.006663
CU3681   CU        0.500880    0.744390    0.734833     0.006663
AG3682   AG        0.535510    0.712362    0.711933     0.008887
CU3683   CU        0.579313    0.719016    0.744549     0.006663
AG3684   AG        0.348392    0.288166    0.781203     0.008887
CU3685   CU        0.371531    0.250244    0.803778     0.006663
CU3686   CU        0.420920    0.265439    0.802584     0.006663
CU3687   CU        0.464876    0.252091    0.792782     0.006663
CU3688   CU        0.486550    0.287057    0.822078     0.006663
CU3689   CU        0.507636    0.249965    0.825436     0.006663
CU3690   CU        0.559107    0.234071    0.824528     0.006663
CU3691   CU        0.537304    0.278381    0.813414     0.006663
AG3692   AG        0.278588    0.328874    0.792925     0.008887
CU3693   CU        0.309784    0.298951    0.810574     0.006663
AG3694   AG        0.291126    0.363349    0.826446     0.008887
CU3695   CU        0.338417    0.293308    0.871390     0.006663
AG3696   AG        0.340468    0.349820    0.812082     0.008887
CU3697   CU        0.392725    0.300364    0.798482     0.006663
CU3698   CU        0.387669    0.343735    0.823401     0.006663
CU3699   CU        0.422552    0.324716    0.855478     0.006663
CU3700   CU        0.387153    0.334983    0.823639     0.006663
AG3701   AG        0.443474    0.310093    0.806191     0.008887
CU3702   CU        0.460972    0.339944    0.836554     0.006663
CU3703   CU        0.471434    0.328315    0.841482     0.006663
AG3704   AG        0.484210    0.331381    0.799411     0.008887
AG3705   AG        0.547172    0.311458    0.787393     0.008887
AG3706   AG        0.521652    0.326069    0.823730     0.008887
CU3707   CU        0.544619    0.318960    0.869029     0.006663
CU3708   CU        0.539053    0.363948    0.846936     0.006663
CU3709   CU        0.577830    0.300009    0.825614     0.006663
AG3710   AG        0.556654    0.357123    0.802251     0.008887
CU3711   CU        0.637477    0.324793    0.825643     0.006663
CU3712   CU        0.255843    0.370908    0.789209     0.006663
AG3713   AG        0.277617    0.407798    0.799745     0.008887
AG3714   AG        0.322701    0.397411    0.819307     0.008887
CU3715   CU        0.283520    0.414015    0.811291     0.006663
CU3716   CU        0.323056    0.369232    0.857379     0.006663
AG3717   AG        0.363976    0.422555    0.803188     0.008887
CU3718   CU        0.381181    0.388556    0.843938     0.006663
AG3719   AG        0.364601    0.385041    0.833677     0.008887
AG3720   AG        0.426223    0.366259    0.833581     0.008887
CU3721   CU        0.443004    0.400210    0.807885     0.006663
CU3722   CU        0.461541    0.374793    0.801854     0.006663
CU3723   CU        0.457406    0.403805    0.837438     0.006663
CU3724   CU        0.502952    0.399804    0.858754     0.006663
AG3725   AG        0.490693    0.420258    0.812047     0.008887
CU3726   CU        0.560329    0.345125    0.813424     0.006663
CU3727   CU        0.502073    0.387779    0.848489     0.006663
CU3728   CU        0.538832    0.364555    0.846871     0.006663
CU3729   CU        0.577044    0.396635    0.783361     0.006663
CU3730   CU        0.618361    0.375656    0.824994     0.006663
CU3731   CU        0.619574    0.353250    0.870053     0.006663
CU3732   CU        0.651599    0.408954    0.821293     0.006663
CU3733   CU        0.662872    0.357412    0.842619     0.006663
AG3734   AG        0.244952    0.448181    0.812678     0.008887
CU3735   CU        0.299927    0.430382    0.854429     0.006663
AG3736   AG        0.274300    0.486307    0.813402     0.008887
CU3737   CU        0.321944    0.449539    0.811105     0.006663
CU3738   CU        0.308958    0.460831    0.825981     0.006663
AG3739   AG        0.347290    0.432551    0.847363     0.008887
AG3740   AG        0.352730    0.485915    0.823192     0.008887
CU3741   CU        0.397506    0.461387    0.796767     0.006663
CU3742   CU        0.387146    0.491276    0.855895     0.006663
CU3743   CU        0.432644    0.443822    0.828384     0.006663
AG3744   AG        0.399494    0.505458    0.778920     0.008887
AG3745   AG        0.448120    0.446436    0.822805     0.008887
CU3746   CU        0.438586    0.476792    0.861992     0.006663
CU3747   CU        0.508016    0.459883    0.838728     0.006663
CU3748   CU        0.497828    0.471799    0.827764     0.006663
CU3749   CU        0.528720    0.411025    0.783370     0.006663
AG3750   AG        0.550392    0.475705    0.820088     0.008887
CU3751   CU        0.557357    0.438271    0.852889     0.006663
AG3752   AG        0.550765    0.519596    0.811600     0.008887
CU3753   CU        0.614641    0.442459    0.797649     0.006663
CU3754   CU        0.630464    0.448121    0.783706     0.006663
CU3755   CU        0.585691    0.452865    0.839846     0.006663
CU3756   CU        0.614897    0.486354    0.823177     0.006663
CU3757   CU        0.658713    0.435592    0.819408     0.006663
CU3758   CU        0.226337    0.539114    0.795154     0.006663
CU3759   CU        0.297673    0.584149    0.761423     0.006663
AG3760   AG        0.311413    0.510864    0.811260     0.008887
CU3761   CU        0.304144    0.549060    0.839534     0.006663
CU3762   CU        0.349587    0.533070    0.841792     0.006663
CU3763   CU        0.321596    0.515993    0.801596     0.006663
AG3764   AG        0.387462    0.522900    0.818074     0.008887
AG3765   AG        0.420278    0.543987    0.802646     0.008887
AG3766   AG        0.425835    0.496585    0.826560     0.008887
CU3767   CU        0.423245    0.545090    0.785620     0.006663
AG3768   AG        0.459405    0.514521    0.793888     0.008887
AG3769   AG        0.455430    0.534784    0.841096     0.008887
CU3770   CU        0.499399    0.503457    0.824136     0.006663
AG3771   AG        0.466025    0.565968    0.801692     0.008887
CU3772   CU        0.481752    0.520058    0.809441     0.006663
CU3773   CU        0.505255    0.557540    0.832648     0.006663
CU3774   CU        0.573623    0.499566    0.853827     0.006663
CU3775   CU        0.586049    0.555369    0.824440     0.006663
CU3776   CU        0.593219    0.503047    0.819978     0.006663
CU3777   CU        0.599774    0.533269    0.865233     0.006663
CU3778   CU        0.625691    0.534433    0.825157     0.006663
CU3779   CU        0.657901    0.519784    0.822230     0.006663
AG3780   AG        0.327044    0.561076    0.801803     0.008887
CU3781   CU        0.365974    0.617235    0.849145     0.006663
CU3782   CU        0.346385    0.638232    0.808755     0.006663
CU3783   CU        0.392304    0.591462    0.811568     0.006663
CU3784   CU        0.433541    0.578620    0.840797     0.006663
CU3785   CU        0.436574    0.635072    0.790815     0.006663
CU3786   CU        0.449993    0.561670    0.799390     0.006663
CU3787   CU        0.451458    0.647636    0.841904     0.006663
CU3788   CU        0.518543    0.589639    0.869528     0.006663
CU3789   CU        0.471816    0.643923    0.780882     0.006663
CU3790   CU        0.532759    0.581749    0.768620     0.006663
CU3791   CU        0.540626    0.566591    0.830423     0.006663
CU3792   CU        0.559440    0.610134    0.805776     0.006663
CU3793   CU        0.600261    0.588135    0.805149     0.006663
CU3794   CU        0.388791    0.626804    0.807232     0.006663
CU3795   CU        0.466830    0.670902    0.809940     0.006663
CU3796   CU        0.511948    0.656776    0.791595     0.006663
CU3797   CU        0.456485    0.393054    0.851325     0.006663
CU3798   CU        0.460499    0.370525    0.867745     0.006663
CU3799   CU        0.472151    0.412544    0.891847     0.006663
CU3800   CU        0.385647    0.444655    0.879505     0.006663
CU3801   CU        0.429031    0.466203    0.868670     0.006663
AG3802   AG        0.470661    0.438400    0.857986     0.008887
CU3803   CU        0.463041    0.466148    0.899510     0.006663
CU3804   CU        0.547904    0.460731    0.869452     0.006663
CU3805   CU        0.427270    0.516778    0.875169     0.006663
