data_00001
_audit_creation_method   'DISCUS'

_data_chemical_name_common 'Au.cell: Pearson 85'

_cell_length_a             57.1046
_cell_length_b             57.1046
_cell_length_c             61.1835
_cell_angle_alpha     90.0000
_cell_angle_beta      90.0000
_cell_angle_gamma     90.0000

_symmetry_space_group_name_H-M   'P1              '

loop_
_atom_site_label
_atom_site_symbol
_atom_site_fract_x
_atom_site_fract_y
_atom_site_fract_z
_atom_site_u_iso_or_equiv
PD1   PD        0.390774    0.284909    0.075109     0.005394
AU2   AU        0.463318    0.282535    0.071622     0.007504
PD3   PD        0.537292    0.286902    0.075506     0.005394
AU4   AU        0.322887    0.356057    0.075304     0.007504
PD5   PD        0.356401    0.320515    0.074864     0.005394
AU6   AU        0.397049    0.352823    0.072025     0.007504
AU7   AU        0.431145    0.318832    0.069178     0.007504
PD8   PD        0.465825    0.354749    0.073275     0.005394
PD9   PD        0.501546    0.315647    0.069100     0.005394
PD10   PD        0.536952    0.353761    0.072914     0.005394
AU11   AU        0.575387    0.320811    0.074396     0.007504
AU12   AU        0.608892    0.358414    0.074403     0.007504
PD13   PD        0.249800    0.427929    0.076571     0.005394
PD14   PD        0.302294    0.449941    0.014846     0.005394
AU15   AU        0.358695    0.390119    0.071922     0.007504
PD16   PD        0.392013    0.424846    0.074018     0.005394
PD17   PD        0.430004    0.357619    0.038993     0.005394
AU18   AU        0.430200    0.428784    0.042276     0.007504
PD19   PD        0.465220    0.394818    0.040944     0.005394
PD20   PD        0.468087    0.431707    0.073410     0.005394
PD21   PD        0.503222    0.390380    0.071289     0.005394
PD22   PD        0.502220    0.430910    0.039771     0.005394
PD23   PD        0.537001    0.427866    0.074964     0.005394
PD24   PD        0.569765    0.390011    0.072818     0.005394
PD25   PD        0.610094    0.425112    0.071907     0.005394
PD26   PD        0.643283    0.391304    0.069614     0.005394
PD27   PD        0.291981    0.462706    0.074738     0.005394
PD28   PD        0.360161    0.503666    0.035413     0.005394
PD29   PD        0.359832    0.465208    0.070355     0.005394
PD30   PD        0.398118    0.429885    0.005473     0.005394
PD31   PD        0.395591    0.498600    0.072239     0.005394
PD32   PD        0.432355    0.466908    0.072498     0.005394
PD33   PD        0.395088    0.497293    0.000667     0.005394
AU34   AU        0.467232    0.463001    0.040118     0.007504
AU35   AU        0.467402    0.500675    0.071201     0.007504
PD36   PD        0.503398    0.463406    0.073948     0.005394
PD37   PD        0.504419    0.561021    0.016104     0.005394
PD38   PD        0.538332    0.458083    0.044831     0.005394
AU39   AU        0.538381    0.501387    0.073499     0.007504
PD40   PD        0.574647    0.464503    0.073821     0.005394
PD41   PD        0.608927    0.498803    0.070163     0.005394
PD42   PD        0.645238    0.464399    0.074895     0.005394
PD43   PD        0.257461    0.538213    0.036984     0.005394
AU44   AU        0.324313    0.570211    0.071876     0.007504
AU45   AU        0.358758    0.530091    0.070209     0.007504
AU46   AU        0.394247    0.569632    0.074429     0.007504
AU47   AU        0.431372    0.534894    0.070112     0.007504
PD48   PD        0.469855    0.532893    0.038277     0.005394
PD49   PD        0.463581    0.570609    0.071107     0.005394
PD50   PD        0.500945    0.537724    0.071237     0.005394
AU51   AU        0.536940    0.568153    0.068468     0.007504
AU52   AU        0.575353    0.536138    0.073980     0.007504
PD53   PD        0.611275    0.570366    0.075036     0.005394
PD54   PD        0.646153    0.532080    0.069861     0.005394
PD55   PD        0.359478    0.605918    0.072847     0.005394
AU56   AU        0.395050    0.638191    0.073903     0.007504
PD57   PD        0.431140    0.605348    0.069601     0.005394
PD58   PD        0.468252    0.639748    0.073329     0.005394
AU59   AU        0.503163    0.603149    0.072959     0.007504
PD60   PD        0.505079    0.611087    0.005804     0.005394
PD61   PD        0.574675    0.606874    0.006587     0.005394
PD62   PD        0.322377    0.214600    0.139759     0.005394
AU63   AU        0.396486    0.213453    0.140454     0.007504
PD64   PD        0.462677    0.177656    0.101632     0.005394
PD65   PD        0.398560    0.195725    0.079468     0.005394
PD66   PD        0.460333    0.210940    0.137675     0.005394
PD67   PD        0.500094    0.178743    0.138417     0.005394
PD68   PD        0.504788    0.215466    0.103329     0.005394
PD69   PD        0.538468    0.214155    0.139071     0.005394
PD70   PD        0.610251    0.213213    0.140938     0.005394
PD71   PD        0.253657    0.286093    0.141338     0.005394
AU72   AU        0.287794    0.248297    0.136898     0.007504
PD73   PD        0.289078    0.283723    0.104149     0.005394
PD74   PD        0.319328    0.282499    0.137986     0.005394
PD75   PD        0.360639    0.249437    0.141924     0.005394
PD76   PD        0.358054    0.288466    0.107786     0.005394
PD77   PD        0.391523    0.253080    0.107584     0.005394
PD78   PD        0.392392    0.286528    0.140083     0.005394
PD79   PD        0.428337    0.250928    0.138407     0.005394
AU80   AU        0.429936    0.283565    0.105048     0.007504
PD81   PD        0.464039    0.247462    0.105055     0.005394
PD82   PD        0.468013    0.284857    0.135535     0.005394
PD83   PD        0.501759    0.245665    0.138979     0.005394
PD84   PD        0.505988    0.282038    0.102876     0.005394
PD85   PD        0.538804    0.251251    0.104250     0.005394
PD86   PD        0.538514    0.281984    0.140226     0.005394
AU87   AU        0.573857    0.248031    0.137703     0.007504
PD88   PD        0.572062    0.285976    0.110222     0.005394
AU89   AU        0.611309    0.285635    0.140042     0.007504
PD90   PD        0.649585    0.250105    0.137522     0.005394
AU91   AU        0.644047    0.286668    0.102750     0.007504
AU92   AU        0.679358    0.281293    0.137200     0.007504
PD93   PD        0.217226    0.322431    0.139155     0.005394
AU94   AU        0.251993    0.355493    0.137895     0.007504
PD95   PD        0.286005    0.320605    0.139580     0.005394
PD96   PD        0.288027    0.359207    0.106424     0.005394
AU97   AU        0.322320    0.320431    0.109040     0.007504
PD98   PD        0.322359    0.356197    0.138868     0.005394
PD99   PD        0.360450    0.320820    0.140322     0.005394
AU100   AU        0.360303    0.358292    0.105728     0.007504
PD101   PD        0.396129    0.320161    0.104849     0.005394
PD102   PD        0.395726    0.353109    0.136584     0.005394
AU103   AU        0.429222    0.320465    0.138466     0.007504
AU104   AU        0.431684    0.353000    0.104015     0.007504
AU105   AU        0.464736    0.319267    0.102877     0.007504
PD106   PD        0.466965    0.350330    0.135816     0.005394
PD107   PD        0.500178    0.321319    0.140175     0.005394
PD108   PD        0.500095    0.358023    0.105433     0.005394
PD109   PD        0.535172    0.322170    0.104360     0.005394
AU110   AU        0.541381    0.356598    0.138750     0.007504
PD111   PD        0.576479    0.323845    0.139718     0.005394
PD112   PD        0.573113    0.358018    0.104801     0.005394
AU113   AU        0.609290    0.320684    0.106429     0.007504
PD114   PD        0.610997    0.358370    0.139136     0.005394
AU115   AU        0.645639    0.320998    0.138895     0.007504
AU116   AU        0.645353    0.359019    0.105837     0.007504
AU117   AU        0.680539    0.356137    0.137119     0.007504
AU118   AU        0.712428    0.321161    0.135946     0.007504
AU119   AU        0.180714    0.426858    0.140773     0.007504
PD120   PD        0.216462    0.388901    0.137406     0.005394
PD121   PD        0.214837    0.424588    0.109999     0.005394
PD122   PD        0.251203    0.389916    0.106487     0.005394
AU123   AU        0.252843    0.424656    0.138730     0.007504
AU124   AU        0.288827    0.390757    0.139757     0.007504
PD125   PD        0.288128    0.425611    0.103580     0.005394
PD126   PD        0.325138    0.391869    0.105262     0.005394
AU127   AU        0.324145    0.427249    0.137371     0.007504
PD128   PD        0.359280    0.392985    0.139734     0.005394
AU129   AU        0.359317    0.427839    0.106147     0.007504
AU130   AU        0.396648    0.390172    0.103730     0.007504
PD131   PD        0.395548    0.424025    0.137714     0.005394
PD132   PD        0.432017    0.387430    0.137086     0.005394
AU133   AU        0.432765    0.426234    0.104767     0.007504
PD134   PD        0.467530    0.391033    0.105088     0.005394
PD135   PD        0.467737    0.425250    0.137823     0.005394
PD136   PD        0.505620    0.392862    0.136821     0.005394
AU137   AU        0.502664    0.427788    0.106563     0.007504
PD138   PD        0.538379    0.391011    0.104511     0.005394
AU139   AU        0.540734    0.426401    0.136727     0.007504
PD140   PD        0.574299    0.391655    0.137924     0.005394
AU141   AU        0.575042    0.428399    0.104063     0.007504
AU142   AU        0.607610    0.393895    0.106412     0.007504
PD143   PD        0.611300    0.432220    0.138249     0.005394
AU144   AU        0.644000    0.392008    0.137569     0.007504
PD145   PD        0.643815    0.427964    0.104095     0.005394
AU146   AU        0.679590    0.392364    0.102707     0.007504
AU147   AU        0.681596    0.428400    0.138622     0.007504
PD148   PD        0.745797    0.388445    0.109597     0.005394
AU149   AU        0.715210    0.427540    0.102726     0.007504
PD150   PD        0.745334    0.426657    0.139482     0.005394
PD151   PD        0.181354    0.460654    0.109236     0.005394
AU152   AU        0.219487    0.461964    0.140058     0.007504
PD153   PD        0.217940    0.497732    0.104513     0.005394
PD154   PD        0.254933    0.461140    0.108410     0.005394
PD155   PD        0.253396    0.494360    0.138039     0.005394
AU156   AU        0.288859    0.461165    0.139020     0.007504
AU157   AU        0.288475    0.498005    0.106178     0.007504
PD158   PD        0.324611    0.460727    0.105997     0.005394
AU159   AU        0.323154    0.497332    0.137638     0.007504
AU160   AU        0.357878    0.463143    0.138337     0.007504
AU161   AU        0.358845    0.499028    0.105220     0.007504
PD162   PD        0.398392    0.465861    0.103305     0.005394
AU163   AU        0.396044    0.497829    0.136662     0.007504
PD164   PD        0.432519    0.462476    0.137115     0.005394
AU165   AU        0.431984    0.498559    0.106146     0.007504
PD166   PD        0.467642    0.461591    0.104664     0.005394
PD167   PD        0.468526    0.499532    0.137544     0.005394
AU168   AU        0.503315    0.464862    0.137009     0.007504
AU169   AU        0.503703    0.500305    0.103558     0.007504
AU170   AU        0.538697    0.463515    0.105616     0.007504
AU171   AU        0.538829    0.498208    0.138965     0.007504
AU172   AU        0.574294    0.464340    0.137735     0.007504
PD173   PD        0.573542    0.501033    0.105840     0.005394
AU174   AU        0.609248    0.464874    0.106559     0.007504
AU175   AU        0.607982    0.498480    0.139193     0.007504
PD176   PD        0.643573    0.460439    0.137679     0.005394
PD177   PD        0.641602    0.501002    0.103961     0.005394
PD178   PD        0.682458    0.465249    0.108159     0.005394
PD179   PD        0.683264    0.498392    0.139265     0.005394
PD180   PD        0.715608    0.462597    0.133719     0.005394
PD181   PD        0.719694    0.500701    0.107505     0.005394
AU182   AU        0.753594    0.498656    0.140032     0.007504
PD183   PD        0.218465    0.529602    0.139957     0.005394
AU184   AU        0.253545    0.532299    0.105657     0.007504
AU185   AU        0.252573    0.571432    0.137251     0.007504
AU186   AU        0.288282    0.535015    0.138432     0.007504
AU187   AU        0.287845    0.568547    0.105500     0.007504
AU188   AU        0.322322    0.534415    0.105407     0.007504
AU189   AU        0.323785    0.570099    0.137826     0.007504
PD190   PD        0.356270    0.533169    0.137643     0.005394
AU191   AU        0.358031    0.569229    0.106801     0.007504
PD192   PD        0.394716    0.533960    0.105166     0.005394
AU193   AU        0.394819    0.568634    0.139486     0.007504
AU194   AU        0.429948    0.536266    0.138881     0.007504
PD195   PD        0.429638    0.567970    0.104998     0.005394
PD196   PD        0.468688    0.536475    0.107460     0.005394
PD197   PD        0.465777    0.568856    0.138195     0.005394
PD198   PD        0.502804    0.535071    0.137501     0.005394
AU199   AU        0.503217    0.569851    0.105962     0.007504
AU200   AU        0.538158    0.536022    0.105928     0.007504
AU201   AU        0.538360    0.569810    0.139645     0.007504
PD202   PD        0.574085    0.535558    0.136158     0.005394
AU203   AU        0.574843    0.569911    0.105964     0.007504
AU204   AU        0.609378    0.533452    0.104658     0.007504
AU205   AU        0.609367    0.571400    0.138044     0.007504
AU206   AU        0.644236    0.533654    0.137152     0.007504
PD207   PD        0.645753    0.569447    0.105780     0.005394
PD208   PD        0.679060    0.534863    0.104939     0.005394
AU209   AU        0.681083    0.568380    0.138840     0.007504
PD210   PD        0.718807    0.533615    0.139328     0.005394
PD211   PD        0.216983    0.606648    0.140103     0.005394
PD212   PD        0.255363    0.640478    0.137263     0.005394
AU213   AU        0.288590    0.606121    0.137627     0.007504
PD214   PD        0.289059    0.641493    0.106783     0.005394
PD215   PD        0.324122    0.606499    0.107244     0.005394
AU216   AU        0.324708    0.640783    0.138903     0.007504
AU217   AU        0.360939    0.605409    0.136220     0.007504
AU218   AU        0.358064    0.640512    0.106101     0.007504
AU219   AU        0.395196    0.605275    0.105566     0.007504
AU220   AU        0.396262    0.640813    0.138695     0.007504
AU221   AU        0.431075    0.603535    0.137155     0.007504
AU222   AU        0.428439    0.640644    0.104616     0.007504
AU223   AU        0.466244    0.603713    0.106624     0.007504
AU224   AU        0.465824    0.642508    0.137531     0.007504
AU225   AU        0.503056    0.604300    0.136651     0.007504
AU226   AU        0.501225    0.639467    0.106065     0.007504
AU227   AU        0.539417    0.604523    0.103737     0.007504
PD228   PD        0.537783    0.639677    0.135915     0.005394
PD229   PD        0.574506    0.606726    0.140073     0.005394
PD230   PD        0.609534    0.716594    0.072667     0.005394
AU231   AU        0.611844    0.605027    0.104407     0.007504
PD232   PD        0.607997    0.637947    0.138890     0.005394
AU233   AU        0.644440    0.603593    0.138954     0.007504
PD234   PD        0.645122    0.643683    0.105667     0.005394
AU235   AU        0.679464    0.638094    0.138751     0.007504
AU236   AU        0.716963    0.606167    0.137090     0.007504
PD237   PD        0.287768    0.674103    0.141593     0.005394
PD238   PD        0.323856    0.708560    0.138612     0.005394
PD239   PD        0.359003    0.673523    0.137949     0.005394
AU240   AU        0.395107    0.676451    0.102551     0.007504
PD241   PD        0.394761    0.712541    0.136644     0.005394
AU242   AU        0.431243    0.675321    0.139461     0.007504
PD243   PD        0.433416    0.711602    0.107671     0.005394
PD244   PD        0.468554    0.679015    0.104429     0.005394
PD245   PD        0.467608    0.709720    0.137066     0.005394
AU246   AU        0.502048    0.676597    0.137216     0.007504
PD247   PD        0.501926    0.712886    0.106405     0.005394
PD248   PD        0.535942    0.675469    0.104602     0.005394
AU249   AU        0.537068    0.710480    0.141284     0.007504
PD250   PD        0.571972    0.673188    0.138858     0.005394
PD251   PD        0.604844    0.709727    0.136212     0.005394
PD252   PD        0.646337    0.677457    0.137036     0.005394
PD253   PD        0.432612    0.743817    0.139478     0.005394
PD254   PD        0.502812    0.746469    0.140491     0.005394
PD255   PD        0.323666    0.142289    0.206813     0.005394
PD256   PD        0.394804    0.142398    0.206521     0.005394
AU257   AU        0.430134    0.105022    0.206831     0.007504
PD258   PD        0.433763    0.141793    0.175535     0.005394
AU259   AU        0.463749    0.142569    0.204159     0.007504
PD260   PD        0.500459    0.108028    0.207234     0.005394
PD261   PD        0.499552    0.142480    0.171409     0.005394
PD262   PD        0.532479    0.137553    0.205625     0.005394
PD263   PD        0.609776    0.142986    0.207652     0.005394
PD264   PD        0.251440    0.214071    0.202462     0.005394
PD265   PD        0.285762    0.180184    0.205507     0.005394
PD266   PD        0.290075    0.214650    0.171724     0.005394
PD267   PD        0.322539    0.177346    0.172849     0.005394
AU268   AU        0.325430    0.215130    0.206414     0.007504
AU269   AU        0.360743    0.175334    0.203344     0.007504
PD270   PD        0.359697    0.216480    0.174808     0.005394
PD271   PD        0.396015    0.177031    0.169629     0.005394
PD272   PD        0.394702    0.212426    0.204115     0.005394
AU273   AU        0.428733    0.179224    0.205671     0.007504
AU274   AU        0.430995    0.212734    0.172689     0.007504
PD275   PD        0.466012    0.179286    0.175352     0.005394
PD276   PD        0.465365    0.214938    0.204764     0.005394
AU277   AU        0.504534    0.177916    0.203827     0.007504
PD278   PD        0.501954    0.212888    0.171941     0.005394
PD279   PD        0.539554    0.179475    0.170720     0.005394
AU280   AU        0.537844    0.211593    0.206322     0.007504
AU281   AU        0.575768    0.179014    0.204309     0.007504
AU282   AU        0.575076    0.214056    0.172390     0.007504
PD283   PD        0.613974    0.181271    0.174753     0.005394
PD284   PD        0.608270    0.213020    0.206421     0.005394
PD285   PD        0.645236    0.179247    0.204581     0.005394
PD286   PD        0.644269    0.215912    0.171593     0.005394
PD287   PD        0.682766    0.210498    0.206169     0.005394
AU288   AU        0.183618    0.287657    0.205776     0.007504
PD289   PD        0.217020    0.246854    0.208241     0.005394
PD290   PD        0.215421    0.282379    0.168572     0.005394
AU291   AU        0.252822    0.250344    0.172505     0.007504
AU292   AU        0.253008    0.283701    0.204148     0.007504
AU293   AU        0.288359    0.248680    0.205212     0.007504
AU294   AU        0.286529    0.284409    0.171935     0.007504
AU295   AU        0.320647    0.248976    0.170744     0.007504
AU296   AU        0.321790    0.285181    0.204333     0.007504
PD297   PD        0.357631    0.252314    0.203965     0.005394
PD298   PD        0.358138    0.285739    0.172031     0.005394
PD299   PD        0.394158    0.248719    0.171099     0.005394
PD300   PD        0.394177    0.284384    0.204201     0.005394
AU301   AU        0.427627    0.247458    0.205563     0.007504
PD302   PD        0.427883    0.284037    0.172202     0.005394
AU303   AU        0.465032    0.247899    0.170612     0.007504
AU304   AU        0.464417    0.282939    0.203374     0.007504
PD305   PD        0.502697    0.246765    0.205678     0.005394
PD306   PD        0.502281    0.280820    0.172367     0.005394
AU307   AU        0.538440    0.247849    0.172142     0.007504
PD308   PD        0.534548    0.280539    0.203923     0.005394
PD309   PD        0.572335    0.247895    0.204207     0.005394
PD310   PD        0.572199    0.284724    0.172458     0.005394
AU311   AU        0.609933    0.249117    0.170102     0.007504
PD312   PD        0.607296    0.286666    0.205326     0.005394
PD313   PD        0.646750    0.246992    0.203042     0.005394
AU314   AU        0.645072    0.285402    0.171732     0.007504
PD315   PD        0.680644    0.248262    0.172233     0.005394
AU316   AU        0.681436    0.282524    0.203213     0.007504
PD317   PD        0.715834    0.246350    0.203709     0.005394
AU318   AU        0.715794    0.283579    0.169865     0.007504
PD319   PD        0.753191    0.282939    0.205348     0.005394
PD320   PD        0.147794    0.320213    0.202512     0.005394
PD321   PD        0.182467    0.319870    0.172369     0.005394
AU322   AU        0.180802    0.355198    0.206697     0.007504
AU323   AU        0.219273    0.321302    0.205762     0.007504
AU324   AU        0.218678    0.357128    0.173674     0.007504
AU325   AU        0.251819    0.319619    0.172144     0.007504
PD326   PD        0.253320    0.356761    0.204786     0.005394
PD327   PD        0.288319    0.323079    0.206215     0.005394
PD328   PD        0.288988    0.355131    0.172269     0.005394
AU329   AU        0.323291    0.319539    0.172622     0.007504
AU330   AU        0.322906    0.355606    0.206316     0.007504
PD331   PD        0.357193    0.319222    0.207690     0.005394
PD332   PD        0.355248    0.358395    0.173829     0.005394
PD333   PD        0.393830    0.319957    0.171046     0.005394
AU334   AU        0.393046    0.355357    0.204629     0.007504
AU335   AU        0.430899    0.319509    0.203902     0.007504
AU336   AU        0.431500    0.353809    0.170059     0.007504
AU337   AU        0.465913    0.318097    0.172330     0.007504
PD338   PD        0.462267    0.355184    0.204756     0.005394
PD339   PD        0.503758    0.320965    0.203040     0.005394
PD340   PD        0.502469    0.355864    0.171172     0.005394
PD341   PD        0.539814    0.321995    0.171857     0.005394
PD342   PD        0.539561    0.358103    0.205843     0.005394
PD343   PD        0.574567    0.319992    0.206987     0.005394
PD344   PD        0.574814    0.358084    0.171672     0.005394
PD345   PD        0.609625    0.322718    0.170552     0.005394
PD346   PD        0.609518    0.357546    0.203175     0.005394
PD347   PD        0.646408    0.322544    0.202084     0.005394
PD348   PD        0.646764    0.353706    0.174024     0.005394
AU349   AU        0.681070    0.319456    0.171718     0.007504
AU350   AU        0.681236    0.357951    0.203505     0.007504
AU351   AU        0.717760    0.319931    0.203626     0.007504
AU352   AU        0.716141    0.352622    0.168865     0.007504
PD353   PD        0.750133    0.315994    0.167108     0.005394
PD354   PD        0.749358    0.355440    0.207436     0.005394
PD355   PD        0.820854    0.340220    0.182083     0.005394
PD356   PD        0.113219    0.428181    0.206619     0.005394
AU357   AU        0.144732    0.387850    0.206322     0.007504
AU358   AU        0.150439    0.426327    0.177000     0.007504
PD359   PD        0.182979    0.389920    0.170244     0.005394
PD360   PD        0.178772    0.427154    0.203825     0.005394
AU361   AU        0.216617    0.390499    0.205950     0.007504
AU362   AU        0.217036    0.425270    0.172840     0.007504
AU363   AU        0.252980    0.391030    0.171427     0.007504
AU364   AU        0.252813    0.426029    0.204240     0.007504
AU365   AU        0.289825    0.390472    0.205816     0.007504
PD366   PD        0.287375    0.426272    0.171591     0.005394
AU367   AU        0.323332    0.392328    0.171347     0.007504
AU368   AU        0.324154    0.426896    0.204117     0.007504
PD369   PD        0.357853    0.391794    0.205612     0.005394
AU370   AU        0.359602    0.427048    0.174129     0.007504
PD371   PD        0.394768    0.391136    0.173150     0.005394
PD372   PD        0.395840    0.425728    0.205052     0.005394
PD373   PD        0.427913    0.389453    0.203786     0.005394
PD374   PD        0.431282    0.428992    0.171034     0.005394
PD375   PD        0.464834    0.392370    0.168182     0.005394
PD376   PD        0.468128    0.427943    0.204973     0.005394
PD377   PD        0.502242    0.391890    0.204367     0.005394
PD378   PD        0.501834    0.426740    0.170227     0.005394
AU379   AU        0.539734    0.395431    0.172692     0.007504
AU380   AU        0.538218    0.427964    0.206289     0.007504
PD381   PD        0.575482    0.390962    0.204152     0.005394
AU382   AU        0.573606    0.429083    0.171042     0.007504
PD383   PD        0.610643    0.393550    0.168211     0.005394
PD384   PD        0.610653    0.430765    0.203804     0.005394
PD385   PD        0.644308    0.391065    0.205304     0.005394
AU386   AU        0.645674    0.426585    0.170398     0.007504
PD387   PD        0.680362    0.392801    0.169217     0.005394
AU388   AU        0.681337    0.426706    0.204480     0.007504
PD389   PD        0.717367    0.391764    0.205985     0.005394
PD390   PD        0.716896    0.425656    0.168437     0.005394
AU391   AU        0.749875    0.390116    0.171561     0.007504
AU392   AU        0.753178    0.427621    0.204498     0.007504
AU393   AU        0.786943    0.392779    0.203433     0.007504
PD394   PD        0.790382    0.426696    0.168688     0.005394
PD395   PD        0.822093    0.426487    0.207885     0.005394
PD396   PD        0.112182    0.498520    0.206921     0.005394
AU397   AU        0.147251    0.463017    0.206361     0.007504
PD398   PD        0.149484    0.497121    0.170422     0.005394
AU399   AU        0.183229    0.461424    0.171873     0.007504
AU400   AU        0.183749    0.499211    0.205554     0.007504
AU401   AU        0.217006    0.461918    0.206278     0.007504
AU402   AU        0.218255    0.497724    0.171093     0.007504
AU403   AU        0.252845    0.460085    0.172087     0.007504
AU404   AU        0.254070    0.496582    0.203942     0.007504
AU405   AU        0.288358    0.461319    0.205782     0.007504
PD406   PD        0.288566    0.496608    0.172118     0.005394
AU407   AU        0.321727    0.462908    0.170623     0.007504
PD408   PD        0.323458    0.496196    0.205726     0.005394
AU409   AU        0.358442    0.463288    0.203756     0.007504
PD410   PD        0.357340    0.499294    0.171654     0.005394
PD411   PD        0.394805    0.463450    0.170630     0.005394
AU412   AU        0.394780    0.499481    0.203125     0.007504
PD413   PD        0.432174    0.463813    0.206240     0.005394
PD414   PD        0.434505    0.499222    0.169226     0.005394
PD415   PD        0.467682    0.463325    0.170773     0.005394
PD416   PD        0.466883    0.496332    0.205233     0.005394
PD417   PD        0.503388    0.465734    0.202122     0.005394
PD418   PD        0.503672    0.500215    0.172260     0.005394
AU419   AU        0.538680    0.464387    0.171982     0.007504
AU420   AU        0.538055    0.500044    0.203609     0.007504
AU421   AU        0.572889    0.462645    0.204282     0.007504
AU422   AU        0.573845    0.500934    0.171186     0.007504
AU423   AU        0.608597    0.463641    0.172277     0.007504
PD424   PD        0.607939    0.498181    0.204922     0.005394
AU425   AU        0.643556    0.464376    0.202613     0.007504
AU426   AU        0.643768    0.499142    0.172547     0.007504
AU427   AU        0.679022    0.464431    0.170625     0.007504
PD428   PD        0.680072    0.500144    0.202622     0.005394
AU429   AU        0.717001    0.464162    0.202873     0.007504
AU430   AU        0.716998    0.498279    0.170047     0.007504
PD431   PD        0.753418    0.462070    0.171310     0.005394
PD432   PD        0.752871    0.496074    0.206420     0.005394
PD433   PD        0.789173    0.462727    0.202610     0.005394
PD434   PD        0.787269    0.496862    0.172236     0.005394
PD435   PD        0.824095    0.496605    0.204632     0.005394
AU436   AU        0.148775    0.534037    0.203671     0.007504
AU437   AU        0.181447    0.535592    0.171022     0.007504
PD438   PD        0.182862    0.572137    0.204885     0.005394
AU439   AU        0.216739    0.532974    0.204485     0.007504
AU440   AU        0.218816    0.569370    0.173037     0.007504
PD441   PD        0.254488    0.532296    0.169925     0.005394
AU442   AU        0.253258    0.569204    0.206622     0.007504
AU443   AU        0.289019    0.533342    0.202904     0.007504
PD444   PD        0.286452    0.568645    0.170708     0.005394
PD445   PD        0.323704    0.535231    0.170582     0.005394
AU446   AU        0.322728    0.570150    0.202406     0.007504
AU447   AU        0.358499    0.534265    0.204506     0.007504
AU448   AU        0.359067    0.569245    0.171413     0.007504
PD449   PD        0.395152    0.534947    0.170133     0.005394
AU450   AU        0.394536    0.570993    0.205690     0.007504
PD451   PD        0.430506    0.536928    0.202818     0.005394
AU452   AU        0.430947    0.569611    0.170931     0.007504
AU453   AU        0.468379    0.535068    0.171312     0.007504
PD454   PD        0.466951    0.568198    0.203540     0.005394
PD455   PD        0.503988    0.533922    0.205049     0.005394
PD456   PD        0.501858    0.570564    0.171793     0.005394
AU457   AU        0.536775    0.532813    0.170755     0.007504
AU458   AU        0.538083    0.569179    0.203409     0.007504
AU459   AU        0.572941    0.534560    0.204323     0.007504
PD460   PD        0.572443    0.567659    0.171702     0.005394
AU461   AU        0.610048    0.536776    0.170229     0.007504
AU462   AU        0.608348    0.569454    0.206133     0.007504
AU463   AU        0.644427    0.534106    0.204200     0.007504
AU464   AU        0.645038    0.569999    0.174006     0.007504
PD465   PD        0.681031    0.533824    0.170586     0.005394
PD466   PD        0.681792    0.568445    0.204269     0.005394
PD467   PD        0.716647    0.535575    0.202421     0.005394
PD468   PD        0.718670    0.567320    0.172639     0.005394
AU469   AU        0.754059    0.533166    0.172245     0.007504
PD470   PD        0.753521    0.568237    0.204427     0.005394
AU471   AU        0.788192    0.532358    0.203332     0.007504
PD472   PD        0.146816    0.604710    0.205074     0.005394
PD473   PD        0.184592    0.607256    0.174819     0.005394
AU474   AU        0.182406    0.641628    0.205358     0.007504
PD475   PD        0.218774    0.602232    0.207246     0.005394
PD476   PD        0.218462    0.640746    0.172076     0.005394
PD477   PD        0.253404    0.602873    0.172251     0.005394
AU478   AU        0.254595    0.640487    0.204958     0.007504
PD479   PD        0.289886    0.604930    0.202274     0.005394
AU480   AU        0.289875    0.639346    0.172226     0.007504
AU481   AU        0.325089    0.606837    0.170343     0.007504
PD482   PD        0.326247    0.641152    0.203748     0.005394
AU483   AU        0.358016    0.606149    0.203686     0.007504
AU484   AU        0.361451    0.642034    0.170903     0.007504
AU485   AU        0.394759    0.605608    0.170337     0.007504
PD486   PD        0.397849    0.640825    0.204614     0.005394
PD487   PD        0.431161    0.605144    0.203878     0.005394
PD488   PD        0.430856    0.643628    0.171354     0.005394
AU489   AU        0.465630    0.608198    0.170918     0.007504
AU490   AU        0.467427    0.642813    0.204782     0.007504
PD491   PD        0.504095    0.602707    0.203676     0.005394
AU492   AU        0.502760    0.638636    0.169707     0.007504
PD493   PD        0.536581    0.606559    0.172940     0.005394
PD494   PD        0.538199    0.640112    0.205909     0.005394
AU495   AU        0.573465    0.604103    0.204095     0.007504
PD496   PD        0.571834    0.640196    0.171963     0.005394
AU497   AU        0.609055    0.604155    0.173146     0.007504
AU498   AU        0.610377    0.639277    0.206259     0.007504
PD499   PD        0.645400    0.605097    0.206784     0.005394
AU500   AU        0.645154    0.639716    0.171398     0.007504
AU501   AU        0.681215    0.603595    0.171676     0.007504
AU502   AU        0.682182    0.642203    0.205509     0.007504
PD503   PD        0.717314    0.606188    0.204482     0.005394
AU504   AU        0.717418    0.641300    0.170273     0.007504
AU505   AU        0.751915    0.604607    0.172405     0.007504
AU506   AU        0.755019    0.640385    0.204697     0.007504
PD507   PD        0.788169    0.602837    0.203742     0.005394
AU508   AU        0.217822    0.676576    0.205267     0.007504
PD509   PD        0.218964    0.673192    0.135390     0.005394
AU510   AU        0.254714    0.711629    0.201702     0.007504
PD511   PD        0.289717    0.675757    0.204239     0.005394
AU512   AU        0.291087    0.711541    0.171592     0.007504
AU513   AU        0.325554    0.676436    0.171181     0.007504
PD514   PD        0.324990    0.710893    0.204756     0.005394
AU515   AU        0.359839    0.675607    0.203376     0.007504
AU516   AU        0.358466    0.711761    0.172148     0.007504
PD517   PD        0.397364    0.678503    0.170786     0.005394
AU518   AU        0.395828    0.711501    0.204617     0.007504
PD519   PD        0.432088    0.674609    0.201268     0.005394
AU520   AU        0.430748    0.711670    0.170814     0.007504
PD521   PD        0.469900    0.675606    0.172481     0.005394
AU522   AU        0.468678    0.714508    0.204426     0.007504
PD523   PD        0.501401    0.679053    0.205610     0.005394
AU524   AU        0.501709    0.710901    0.171760     0.007504
AU525   AU        0.535463    0.675916    0.172338     0.007504
AU526   AU        0.538243    0.712576    0.206519     0.007504
PD527   PD        0.571281    0.674631    0.205094     0.005394
AU528   AU        0.573179    0.710315    0.173977     0.007504
PD529   PD        0.607262    0.673822    0.170482     0.005394
AU530   AU        0.608681    0.710076    0.204903     0.007504
AU531   AU        0.644906    0.675743    0.205047     0.007504
PD532   PD        0.647344    0.707471    0.170829     0.005394
PD533   PD        0.679932    0.672386    0.172038     0.005394
AU534   AU        0.683129    0.709358    0.204204     0.007504
PD535   PD        0.718700    0.676514    0.202145     0.005394
AU536   AU        0.288790    0.746368    0.205418     0.007504
PD537   PD        0.322870    0.749251    0.172273     0.005394
AU538   AU        0.323485    0.782144    0.205015     0.007504
AU539   AU        0.362274    0.748072    0.205200     0.007504
PD540   PD        0.394614    0.747326    0.169242     0.005394
PD541   PD        0.394076    0.784921    0.204975     0.005394
PD542   PD        0.428701    0.746932    0.203251     0.005394
PD543   PD        0.393695    0.856790    0.141745     0.005394
AU544   AU        0.465545    0.748476    0.170640     0.007504
PD545   PD        0.469330    0.785819    0.206045     0.005394
AU546   AU        0.503672    0.748445    0.203223     0.007504
PD547   PD        0.500189    0.784120    0.169269     0.005394
PD548   PD        0.540947    0.750168    0.170304     0.005394
PD549   PD        0.574143    0.821181    0.208962     0.005394
PD550   PD        0.574891    0.746693    0.205347     0.005394
PD551   PD        0.648917    0.749735    0.139003     0.005394
PD552   PD        0.610864    0.783521    0.207706     0.005394
PD553   PD        0.649235    0.742793    0.205628     0.005394
PD554   PD        0.428597    0.783445    0.168223     0.005394
PD555   PD        0.503046    0.818686    0.205423     0.005394
PD556   PD        0.390389    0.073151    0.270918     0.005394
AU557   AU        0.463831    0.069377    0.270324     0.007504
PD558   PD        0.536847    0.069060    0.273352     0.005394
PD559   PD        0.252725    0.141910    0.273338     0.005394
PD560   PD        0.262345    0.072325    0.318420     0.005394
AU561   AU        0.289352    0.139257    0.238860     0.007504
AU562   AU        0.322642    0.142119    0.272160     0.007504
AU563   AU        0.358103    0.109116    0.271588     0.007504
PD564   PD        0.358082    0.142967    0.238668     0.005394
PD565   PD        0.397475    0.107476    0.236981     0.005394
AU566   AU        0.394662    0.140913    0.270077     0.007504
AU567   AU        0.431649    0.108239    0.272957     0.007504
AU568   AU        0.429765    0.143065    0.239493     0.007504
AU569   AU        0.464840    0.107111    0.240004     0.007504
AU570   AU        0.465367    0.143331    0.271186     0.007504
AU571   AU        0.499043    0.108023    0.272853     0.007504
PD572   PD        0.499624    0.144033    0.239216     0.005394
PD573   PD        0.535562    0.105662    0.242475     0.005394
AU574   AU        0.536651    0.140172    0.272298     0.007504
AU575   AU        0.573772    0.108485    0.269214     0.007504
PD576   PD        0.572444    0.143687    0.235695     0.005394
AU577   AU        0.607565    0.142046    0.270680     0.007504
PD578   PD        0.642603    0.069758    0.234253     0.005394
AU579   AU        0.645329    0.144109    0.237345     0.007504
AU580   AU        0.679389    0.144172    0.274459     0.007504
AU581   AU        0.180128    0.213372    0.272240     0.007504
AU582   AU        0.218643    0.178670    0.272845     0.007504
AU583   AU        0.216287    0.212077    0.240636     0.007504
PD584   PD        0.252521    0.179359    0.237081     0.005394
AU585   AU        0.252865    0.212099    0.272761     0.007504
AU586   AU        0.286480    0.177366    0.272046     0.007504
AU587   AU        0.287010    0.213855    0.237097     0.007504
AU588   AU        0.323239    0.175914    0.237545     0.007504
AU589   AU        0.323394    0.211086    0.269175     0.007504
AU590   AU        0.358195    0.175628    0.272301     0.007504
AU591   AU        0.359220    0.212060    0.239879     0.007504
AU592   AU        0.392485    0.175765    0.238165     0.007504
AU593   AU        0.391583    0.212268    0.271625     0.007504
AU594   AU        0.428683    0.177151    0.270980     0.007504
PD595   PD        0.428216    0.213747    0.240312     0.005394
PD596   PD        0.461961    0.181347    0.238263     0.005394
AU597   AU        0.464985    0.211544    0.271287     0.007504
AU598   AU        0.502490    0.177912    0.271471     0.007504
PD599   PD        0.500262    0.211454    0.239820     0.005394
AU600   AU        0.538861    0.175242    0.237899     0.007504
PD601   PD        0.535372    0.213295    0.271799     0.005394
AU602   AU        0.573418    0.179310    0.271308     0.007504
PD603   PD        0.572888    0.214321    0.237373     0.005394
AU604   AU        0.609940    0.178852    0.239470     0.007504
PD605   PD        0.610028    0.213796    0.269792     0.005394
AU606   AU        0.642802    0.178779    0.273279     0.007504
PD607   PD        0.644107    0.211000    0.238263     0.005394
PD608   PD        0.680856    0.177413    0.240717     0.005394
PD609   PD        0.680220    0.212365    0.272011     0.005394
PD610   PD        0.687522    0.112738    0.229546     0.005394
PD611   PD        0.720545    0.213695    0.238075     0.005394
PD612   PD        0.752524    0.211841    0.273896     0.005394
PD613   PD        0.076479    0.298061    0.271114     0.005394
PD614   PD        0.115870    0.246777    0.241293     0.005394
PD615   PD        0.148577    0.290349    0.238064     0.005394
PD616   PD        0.178686    0.250270    0.238840     0.005394
AU617   AU        0.182446    0.286071    0.269005     0.007504
AU618   AU        0.217636    0.250496    0.269429     0.007504
AU619   AU        0.217490    0.285823    0.236755     0.007504
AU620   AU        0.252744    0.248787    0.238046     0.007504
AU621   AU        0.251912    0.283996    0.272269     0.007504
AU622   AU        0.286890    0.247810    0.271320     0.007504
AU623   AU        0.286527    0.283562    0.236563     0.007504
PD624   PD        0.323045    0.248560    0.240263     0.005394
PD625   PD        0.323006    0.285826    0.271655     0.005394
PD626   PD        0.359432    0.248761    0.272883     0.005394
AU627   AU        0.356202    0.283507    0.239003     0.007504
AU628   AU        0.392001    0.249576    0.237743     0.007504
AU629   AU        0.394491    0.284801    0.271683     0.007504
AU630   AU        0.429057    0.248721    0.271605     0.007504
AU631   AU        0.430721    0.283621    0.237585     0.007504
AU632   AU        0.465080    0.249087    0.238019     0.007504
PD633   PD        0.467601    0.282413    0.272444     0.005394
PD634   PD        0.501206    0.245634    0.271041     0.005394
PD635   PD        0.500698    0.283546    0.236608     0.005394
AU636   AU        0.536052    0.246965    0.240374     0.007504
PD637   PD        0.536378    0.281174    0.272265     0.005394
AU638   AU        0.573407    0.247387    0.271065     0.007504
PD639   PD        0.572391    0.284688    0.240237     0.005394
PD640   PD        0.608945    0.249797    0.236994     0.005394
PD641   PD        0.608156    0.285454    0.268042     0.005394
PD642   PD        0.645818    0.249202    0.272474     0.005394
PD643   PD        0.646434    0.283148    0.235771     0.005394
PD644   PD        0.680741    0.246924    0.236774     0.005394
PD645   PD        0.681097    0.286134    0.269660     0.005394
PD646   PD        0.715457    0.246903    0.273386     0.005394
PD647   PD        0.715988    0.282552    0.235970     0.005394
PD648   PD        0.790132    0.218840    0.235792     0.005394
PD649   PD        0.751988    0.286528    0.269176     0.005394
PD650   PD        0.784849    0.252620    0.269306     0.005394
PD651   PD        0.792548    0.287516    0.236328     0.005394
PD652   PD        0.822830    0.284053    0.272046     0.005394
AU653   AU        0.112428    0.357729    0.272454     0.007504
AU654   AU        0.148728    0.320142    0.273905     0.007504
PD655   PD        0.145082    0.356713    0.240132     0.005394
AU656   AU        0.181928    0.323195    0.239054     0.007504
PD657   PD        0.181588    0.357286    0.272281     0.005394
PD658   PD        0.217313    0.319529    0.270193     0.005394
AU659   AU        0.219357    0.356104    0.237470     0.007504
AU660   AU        0.253340    0.319937    0.238183     0.007504
AU661   AU        0.253234    0.353781    0.272921     0.007504
AU662   AU        0.289415    0.319494    0.269345     0.007504
PD663   PD        0.288020    0.355830    0.238082     0.005394
AU664   AU        0.321425    0.319770    0.238290     0.007504
AU665   AU        0.324548    0.356472    0.274041     0.007504
AU666   AU        0.356989    0.319851    0.269393     0.007504
AU667   AU        0.357418    0.355569    0.237748     0.007504
AU668   AU        0.394222    0.318606    0.239237     0.007504
AU669   AU        0.393306    0.355661    0.270061     0.007504
PD670   PD        0.427418    0.320658    0.268236     0.005394
AU671   AU        0.427690    0.355671    0.239298     0.007504
PD672   PD        0.465998    0.321488    0.237649     0.005394
PD673   PD        0.466998    0.356335    0.272104     0.005394
PD674   PD        0.502821    0.319324    0.271027     0.005394
AU675   AU        0.502915    0.358769    0.238238     0.007504
PD676   PD        0.536488    0.316897    0.240529     0.005394
PD677   PD        0.538344    0.355881    0.272858     0.005394
PD678   PD        0.573567    0.321475    0.273566     0.005394
AU679   AU        0.574240    0.355136    0.239740     0.007504
PD680   PD        0.610321    0.320745    0.238201     0.005394
AU681   AU        0.609684    0.357399    0.271389     0.007504
AU682   AU        0.644791    0.319351    0.271034     0.007504
PD683   PD        0.646005    0.356264    0.238133     0.005394
AU684   AU        0.680978    0.320786    0.236122     0.007504
PD685   PD        0.679300    0.355470    0.270617     0.005394
AU686   AU        0.715579    0.321630    0.271188     0.007504
PD687   PD        0.715408    0.358278    0.237877     0.005394
PD688   PD        0.784636    0.319966    0.204615     0.005394
PD689   PD        0.754116    0.355144    0.267669     0.005394
AU690   AU        0.787097    0.321374    0.270746     0.007504
PD691   PD        0.787554    0.358616    0.235168     0.005394
PD692   PD        0.884008    0.335579    0.265405     0.005394
PD693   PD        0.075991    0.393764    0.272331     0.005394
AU694   AU        0.111457    0.391998    0.238471     0.007504
AU695   AU        0.112778    0.427620    0.271686     0.007504
PD696   PD        0.147879    0.392563    0.271531     0.005394
PD697   PD        0.149053    0.426524    0.238247     0.005394
PD698   PD        0.182407    0.391254    0.238571     0.005394
PD699   PD        0.186232    0.426934    0.272803     0.005394
PD700   PD        0.219605    0.393036    0.272012     0.005394
PD701   PD        0.218795    0.427847    0.238276     0.005394
AU702   AU        0.252346    0.391039    0.238557     0.007504
AU703   AU        0.252754    0.426753    0.272012     0.007504
AU704   AU        0.288362    0.390336    0.272985     0.007504
AU705   AU        0.287668    0.426511    0.238663     0.007504
AU706   AU        0.324164    0.392929    0.237217     0.007504
AU707   AU        0.323396    0.427117    0.271867     0.007504
PD708   PD        0.359364    0.390408    0.273352     0.005394
AU709   AU        0.357048    0.428971    0.238104     0.007504
AU710   AU        0.392209    0.391437    0.237372     0.007504
PD711   PD        0.393450    0.428438    0.271619     0.005394
PD712   PD        0.429761    0.391894    0.270787     0.005394
AU713   AU        0.429602    0.427772    0.238516     0.007504
PD714   PD        0.466279    0.390371    0.238332     0.005394
PD715   PD        0.467004    0.427411    0.271202     0.005394
PD716   PD        0.503625    0.391369    0.272453     0.005394
AU717   AU        0.503342    0.427135    0.239642     0.007504
PD718   PD        0.539773    0.392376    0.238195     0.005394
AU719   AU        0.539085    0.425818    0.271665     0.007504
PD720   PD        0.574210    0.393363    0.270513     0.005394
AU721   AU        0.576436    0.428222    0.235114     0.007504
AU722   AU        0.607859    0.390797    0.237656     0.007504
AU723   AU        0.608557    0.426827    0.271142     0.007504
AU724   AU        0.644351    0.394688    0.269707     0.007504
AU725   AU        0.646329    0.427729    0.237352     0.007504
PD726   PD        0.681204    0.389191    0.236659     0.005394
PD727   PD        0.682059    0.427556    0.271084     0.005394
PD728   PD        0.718490    0.392715    0.269084     0.005394
PD729   PD        0.718418    0.428197    0.236865     0.005394
PD730   PD        0.754711    0.393871    0.237931     0.005394
AU731   AU        0.753930    0.426388    0.272133     0.007504
AU732   AU        0.789411    0.391013    0.272323     0.007504
AU733   AU        0.788844    0.426365    0.239061     0.007504
PD734   PD        0.823859    0.391349    0.238007     0.005394
AU735   AU        0.824098    0.427332    0.271190     0.007504
PD736   PD        0.857590    0.391858    0.269706     0.005394
PD737   PD        0.074036    0.463336    0.269747     0.005394
AU738   AU        0.111459    0.464006    0.234765     0.007504
AU739   AU        0.112755    0.498026    0.269276     0.007504
PD740   PD        0.148117    0.463013    0.269999     0.005394
AU741   AU        0.149177    0.498283    0.235922     0.007504
AU742   AU        0.183134    0.464479    0.239059     0.007504
AU743   AU        0.182650    0.499133    0.272628     0.007504
AU744   AU        0.219027    0.462417    0.270678     0.007504
PD745   PD        0.219429    0.496757    0.237879     0.005394
AU746   AU        0.253465    0.462451    0.236634     0.007504
PD747   PD        0.252922    0.497704    0.270828     0.005394
PD748   PD        0.289103    0.463278    0.269712     0.005394
AU749   AU        0.288613    0.497564    0.236259     0.007504
AU750   AU        0.323610    0.462523    0.238876     0.007504
AU751   AU        0.324260    0.499527    0.268034     0.007504
PD752   PD        0.359363    0.464904    0.271522     0.005394
AU753   AU        0.359528    0.498968    0.238240     0.007504
AU754   AU        0.395914    0.461158    0.237667     0.007504
PD755   PD        0.394497    0.500991    0.270450     0.005394
AU756   AU        0.431667    0.464458    0.269540     0.007504
PD757   PD        0.432150    0.501541    0.236512     0.005394
AU758   AU        0.467949    0.461683    0.238073     0.007504
PD759   PD        0.467199    0.499828    0.271096     0.005394
PD760   PD        0.500526    0.459767    0.272418     0.005394
AU761   AU        0.503534    0.498571    0.239684     0.007504
AU762   AU        0.536541    0.463906    0.240454     0.007504
PD763   PD        0.540839    0.499123    0.272742     0.005394
AU764   AU        0.574150    0.462614    0.270185     0.007504
AU765   AU        0.572590    0.498057    0.235720     0.007504
PD766   PD        0.611039    0.463653    0.237932     0.005394
AU767   AU        0.610330    0.498337    0.270549     0.007504
PD768   PD        0.644394    0.462258    0.271005     0.005394
PD769   PD        0.642960    0.500821    0.237009     0.005394
PD770   PD        0.681037    0.465359    0.233785     0.005394
PD771   PD        0.683061    0.497592    0.269571     0.005394
PD772   PD        0.719486    0.461101    0.271802     0.005394
PD773   PD        0.717673    0.499422    0.238430     0.005394
PD774   PD        0.754652    0.463096    0.237056     0.005394
PD775   PD        0.751975    0.500961    0.270001     0.005394
AU776   AU        0.787886    0.461938    0.273026     0.007504
PD777   PD        0.788406    0.497771    0.238168     0.005394
PD778   PD        0.820252    0.462016    0.237084     0.005394
PD779   PD        0.824980    0.496940    0.272327     0.005394
AU780   AU        0.861257    0.461175    0.271041     0.007504
AU781   AU        0.075006    0.532144    0.270300     0.007504
AU782   AU        0.112043    0.532616    0.238006     0.007504
PD783   PD        0.109361    0.570963    0.271773     0.005394
PD784   PD        0.149214    0.535404    0.273275     0.005394
AU785   AU        0.145324    0.569512    0.237308     0.007504
AU786   AU        0.182902    0.535289    0.236797     0.007504
AU787   AU        0.181253    0.569218    0.272084     0.007504
PD788   PD        0.215039    0.535020    0.271239     0.005394
PD789   PD        0.216851    0.569187    0.237849     0.005394
AU790   AU        0.256311    0.533651    0.236707     0.007504
AU791   AU        0.252360    0.569386    0.268582     0.007504
AU792   AU        0.289053    0.534353    0.270648     0.007504
PD793   PD        0.291693    0.572273    0.238426     0.005394
PD794   PD        0.325376    0.534085    0.236515     0.005394
AU795   AU        0.322927    0.569646    0.270519     0.007504
AU796   AU        0.359799    0.536265    0.269374     0.007504
PD797   PD        0.357742    0.569507    0.237031     0.005394
AU798   AU        0.394099    0.534469    0.236851     0.007504
AU799   AU        0.396567    0.569515    0.269978     0.007504
PD800   PD        0.431873    0.532104    0.271356     0.005394
AU801   AU        0.431008    0.569020    0.237204     0.007504
PD802   PD        0.465638    0.533902    0.239302     0.005394
AU803   AU        0.467262    0.569371    0.273333     0.007504
AU804   AU        0.501734    0.536171    0.270727     0.007504
AU805   AU        0.503467    0.570188    0.235835     0.007504
AU806   AU        0.539251    0.533524    0.236525     0.007504
AU807   AU        0.538508    0.568232    0.271563     0.007504
PD808   PD        0.574644    0.532277    0.271895     0.005394
PD809   PD        0.576312    0.567973    0.236303     0.005394
PD810   PD        0.606460    0.532541    0.237555     0.005394
AU811   AU        0.610738    0.568959    0.269919     0.007504
PD812   PD        0.647785    0.534298    0.271077     0.005394
AU813   AU        0.647012    0.568205    0.239009     0.007504
AU814   AU        0.680134    0.534328    0.237680     0.007504
AU815   AU        0.678557    0.569110    0.272628     0.007504
PD816   PD        0.718046    0.536659    0.269551     0.005394
AU817   AU        0.715301    0.570135    0.238422     0.007504
AU818   AU        0.753205    0.534344    0.236875     0.007504
AU819   AU        0.752645    0.569505    0.270875     0.007504
AU820   AU        0.786213    0.534638    0.272738     0.007504
AU821   AU        0.786815    0.571249    0.238216     0.007504
PD822   PD        0.820945    0.533739    0.241347     0.005394
AU823   AU        0.821318    0.571813    0.271660     0.007504
PD824   PD        0.854980    0.536860    0.270212     0.005394
AU825   AU        0.113334    0.641412    0.270893     0.007504
AU826   AU        0.145213    0.605930    0.267890     0.007504
AU827   AU        0.147810    0.640047    0.237088     0.007504
AU828   AU        0.182062    0.605225    0.238632     0.007504
AU829   AU        0.182425    0.641148    0.271267     0.007504
AU830   AU        0.218213    0.605406    0.268964     0.007504
AU831   AU        0.217849    0.641352    0.238146     0.007504
PD832   PD        0.254186    0.605212    0.239471     0.005394
AU833   AU        0.253581    0.640439    0.271131     0.007504
AU834   AU        0.288500    0.606941    0.271603     0.007504
AU835   AU        0.289459    0.640459    0.238986     0.007504
PD836   PD        0.325946    0.605908    0.238664     0.005394
PD837   PD        0.323398    0.639207    0.271917     0.005394
AU838   AU        0.359120    0.605267    0.272707     0.007504
AU839   AU        0.360933    0.641321    0.238528     0.007504
AU840   AU        0.395621    0.604646    0.237942     0.007504
AU841   AU        0.397279    0.641194    0.269655     0.007504
PD842   PD        0.431807    0.607157    0.272617     0.005394
PD843   PD        0.431449    0.639518    0.237173     0.005394
PD844   PD        0.466494    0.604744    0.235731     0.005394
PD845   PD        0.465994    0.643802    0.270538     0.005394
PD846   PD        0.504539    0.604126    0.269053     0.005394
AU847   AU        0.504105    0.639441    0.236962     0.007504
AU848   AU        0.539593    0.604746    0.238693     0.007504
PD849   PD        0.540128    0.638553    0.269605     0.005394
AU850   AU        0.576708    0.604209    0.270377     0.007504
AU851   AU        0.575910    0.639868    0.236885     0.007504
PD852   PD        0.610846    0.604943    0.237111     0.005394
AU853   AU        0.609714    0.640773    0.269433     0.007504
AU854   AU        0.643485    0.605648    0.270454     0.007504
AU855   AU        0.645890    0.643045    0.237907     0.007504
PD856   PD        0.682559    0.607703    0.238292     0.005394
PD857   PD        0.680306    0.641381    0.271006     0.005394
AU858   AU        0.719176    0.605792    0.270850     0.007504
PD859   PD        0.718501    0.639391    0.238370     0.005394
AU860   AU        0.752187    0.603330    0.238065     0.007504
PD861   PD        0.753045    0.642239    0.269444     0.005394
AU862   AU        0.786432    0.605681    0.272662     0.007504
AU863   AU        0.787699    0.637896    0.237681     0.007504
PD864   PD        0.823037    0.637397    0.270219     0.005394
PD865   PD        0.148402    0.677296    0.268664     0.005394
AU866   AU        0.183778    0.677706    0.238860     0.007504
AU867   AU        0.184109    0.713688    0.270461     0.007504
PD868   PD        0.216020    0.677127    0.271029     0.005394
AU869   AU        0.217625    0.710583    0.238199     0.007504
AU870   AU        0.253164    0.678026    0.237561     0.007504
PD871   PD        0.252251    0.712051    0.270627     0.005394
AU872   AU        0.288707    0.675717    0.269941     0.007504
AU873   AU        0.289940    0.712105    0.236557     0.007504
PD874   PD        0.326337    0.676153    0.237263     0.005394
PD875   PD        0.325530    0.709812    0.272351     0.005394
PD876   PD        0.362020    0.675312    0.271751     0.005394
AU877   AU        0.359985    0.710401    0.237907     0.007504
AU878   AU        0.395766    0.676908    0.237722     0.007504
AU879   AU        0.395530    0.712719    0.269659     0.007504
AU880   AU        0.431332    0.675572    0.269185     0.007504
PD881   PD        0.430308    0.712923    0.240225     0.005394
PD882   PD        0.465311    0.677483    0.235381     0.005394
AU883   AU        0.467802    0.709981    0.272200     0.007504
PD884   PD        0.505016    0.676756    0.271973     0.005394
AU885   AU        0.501097    0.713152    0.238057     0.007504
AU886   AU        0.535948    0.678957    0.238948     0.007504
PD887   PD        0.539532    0.711627    0.273588     0.005394
AU888   AU        0.572629    0.674924    0.268624     0.007504
PD889   PD        0.570110    0.713306    0.238604     0.005394
PD890   PD        0.609535    0.676065    0.237851     0.005394
AU891   AU        0.608427    0.712216    0.271244     0.007504
AU892   AU        0.642456    0.677017    0.271504     0.007504
PD893   PD        0.645145    0.707920    0.238815     0.005394
PD894   PD        0.680520    0.676459    0.240404     0.005394
AU895   AU        0.681841    0.711854    0.271610     0.007504
PD896   PD        0.718398    0.674944    0.267860     0.005394
PD897   PD        0.713018    0.709581    0.239185     0.005394
PD898   PD        0.754180    0.677429    0.237566     0.005394
AU899   AU        0.751874    0.711293    0.272565     0.007504
PD900   PD        0.788720    0.675434    0.268387     0.005394
AU901   AU        0.221035    0.746978    0.270446     0.007504
PD902   PD        0.252277    0.745762    0.238500     0.005394
AU903   AU        0.254803    0.781784    0.270412     0.007504
AU904   AU        0.290591    0.744454    0.271586     0.007504
AU905   AU        0.291698    0.782775    0.239462     0.007504
AU906   AU        0.326442    0.745332    0.237657     0.007504
PD907   PD        0.324444    0.782536    0.273955     0.005394
AU908   AU        0.358048    0.746685    0.270269     0.007504
PD909   PD        0.357962    0.783809    0.238517     0.005394
AU910   AU        0.398994    0.748680    0.237085     0.007504
AU911   AU        0.395133    0.783057    0.272723     0.007504
AU912   AU        0.431810    0.746941    0.272773     0.007504
PD913   PD        0.431109    0.782784    0.238133     0.005394
PD914   PD        0.465113    0.743611    0.240266     0.005394
PD915   PD        0.470349    0.782028    0.268268     0.005394
PD916   PD        0.502150    0.745876    0.274148     0.005394
PD917   PD        0.507817    0.783131    0.235840     0.005394
PD918   PD        0.537074    0.745804    0.239384     0.005394
PD919   PD        0.538300    0.782430    0.271691     0.005394
AU920   AU        0.574137    0.748146    0.271947     0.007504
AU921   AU        0.573653    0.779265    0.238835     0.007504
PD922   PD        0.611758    0.747844    0.236574     0.005394
AU923   AU        0.609670    0.780247    0.271568     0.007504
PD924   PD        0.644729    0.745879    0.271795     0.005394
PD925   PD        0.645158    0.780383    0.170241     0.005394
PD926   PD        0.680413    0.747467    0.236802     0.005394
PD927   PD        0.677314    0.782577    0.269992     0.005394
PD928   PD        0.715331    0.746385    0.270363     0.005394
PD929   PD        0.293197    0.818818    0.270274     0.005394
AU930   AU        0.361348    0.817844    0.272265     0.007504
AU931   AU        0.396686    0.817787    0.238621     0.007504
PD932   PD        0.395960    0.856199    0.273931     0.005394
PD933   PD        0.429942    0.821521    0.273303     0.005394
AU934   AU        0.468832    0.821075    0.240872     0.007504
PD935   PD        0.424559    0.888696    0.207900     0.005394
PD936   PD        0.507685    0.821815    0.267877     0.005394
PD937   PD        0.527631    0.850958    0.135090     0.005394
PD938   PD        0.537332    0.892304    0.233532     0.005394
AU939   AU        0.574036    0.816570    0.269383     0.007504
PD940   PD        0.644356    0.814764    0.271658     0.005394
AU941   AU        0.324823    0.070124    0.338628     0.007504
PD942   PD        0.359758    0.075316    0.306144     0.005394
AU943   AU        0.394497    0.072895    0.340197     0.007504
AU944   AU        0.429340    0.074630    0.303891     0.007504
PD945   PD        0.464612    0.074799    0.340796     0.005394
PD946   PD        0.501207    0.072058    0.304697     0.005394
PD947   PD        0.536828    0.076337    0.338803     0.005394
PD948   PD        0.576916    0.072477    0.304258     0.005394
PD949   PD        0.606062    0.067688    0.339328     0.005394
PD950   PD        0.219387    0.139033    0.303557     0.005394
AU951   AU        0.253057    0.142964    0.337677     0.007504
AU952   AU        0.291061    0.107186    0.338845     0.007504
AU953   AU        0.290059    0.141847    0.305529     0.007504
AU954   AU        0.326584    0.104549    0.305319     0.007504
AU955   AU        0.324277    0.143001    0.338817     0.007504
AU956   AU        0.360356    0.108338    0.339240     0.007504
AU957   AU        0.358167    0.144537    0.305562     0.007504
PD958   PD        0.394568    0.108500    0.304037     0.005394
PD959   PD        0.395370    0.143803    0.337373     0.005394
AU960   AU        0.429056    0.109278    0.335960     0.007504
PD961   PD        0.431133    0.143515    0.304819     0.005394
PD962   PD        0.464032    0.109166    0.307100     0.005394
PD963   PD        0.467169    0.144221    0.340088     0.005394
PD964   PD        0.501909    0.108927    0.338524     0.005394
PD965   PD        0.503198    0.144471    0.306514     0.005394
AU966   AU        0.537354    0.106140    0.303335     0.007504
AU967   AU        0.538107    0.143455    0.339566     0.007504
AU968   AU        0.572475    0.108656    0.337835     0.007504
PD969   PD        0.573904    0.141907    0.306356     0.005394
PD970   PD        0.609826    0.071208    0.270280     0.005394
PD971   PD        0.607867    0.142444    0.337665     0.005394
AU972   AU        0.641456    0.104738    0.338426     0.007504
AU973   AU        0.642555    0.139317    0.305062     0.007504
AU974   AU        0.678427    0.140196    0.338992     0.007504
PD975   PD        0.715410    0.138911    0.306675     0.005394
PD976   PD        0.145458    0.213439    0.302953     0.005394
PD977   PD        0.182035    0.179735    0.307895     0.005394
PD978   PD        0.181328    0.211160    0.335284     0.005394
PD979   PD        0.219677    0.175866    0.335395     0.005394
AU980   AU        0.217371    0.215067    0.305003     0.007504
PD981   PD        0.253625    0.177526    0.305315     0.005394
AU982   AU        0.252132    0.215098    0.336647     0.007504
AU983   AU        0.288000    0.177530    0.337427     0.007504
AU984   AU        0.288125    0.215921    0.305240     0.007504
AU985   AU        0.322823    0.178526    0.304991     0.007504
PD986   PD        0.320703    0.213618    0.338000     0.005394
PD987   PD        0.360128    0.177896    0.339566     0.005394
AU988   AU        0.357827    0.214168    0.303243     0.007504
AU989   AU        0.393026    0.177819    0.303513     0.007504
AU990   AU        0.395371    0.211751    0.338062     0.007504
PD991   PD        0.428332    0.177644    0.336932     0.005394
PD992   PD        0.426318    0.213201    0.304622     0.005394
AU993   AU        0.463638    0.177874    0.304383     0.007504
AU994   AU        0.463688    0.212245    0.338632     0.007504
AU995   AU        0.500659    0.178966    0.337415     0.007504
AU996   AU        0.499502    0.210447    0.304396     0.007504
AU997   AU        0.539304    0.176047    0.304012     0.007504
PD998   PD        0.538896    0.212192    0.340071     0.005394
PD999   PD        0.573048    0.178882    0.338785     0.005394
AU1000   AU        0.575908    0.212292    0.305180     0.007504
AU1001   AU        0.608450    0.176096    0.304844     0.007504
PD1002   PD        0.607603    0.212222    0.337299     0.005394
AU1003   AU        0.645766    0.177572    0.338510     0.007504
AU1004   AU        0.642437    0.213419    0.306209     0.007504
PD1005   PD        0.679453    0.178038    0.306912     0.005394
PD1006   PD        0.680499    0.213676    0.339167     0.005394
PD1007   PD        0.716185    0.179452    0.338614     0.005394
PD1008   PD        0.714620    0.212501    0.304639     0.005394
PD1009   PD        0.749077    0.127155    0.276788     0.005394
PD1010   PD        0.750221    0.215025    0.335725     0.005394
PD1011   PD        0.791242    0.212256    0.307012     0.005394
AU1012   AU        0.112637    0.284964    0.338252     0.007504
AU1013   AU        0.147482    0.248995    0.336801     0.007504
AU1014   AU        0.147664    0.285060    0.304105     0.007504
AU1015   AU        0.183149    0.249664    0.302395     0.007504
AU1016   AU        0.181873    0.283973    0.337957     0.007504
PD1017   PD        0.213141    0.248981    0.337148     0.005394
AU1018   AU        0.218499    0.285112    0.304843     0.007504
AU1019   AU        0.251550    0.250530    0.304460     0.007504
PD1020   PD        0.253166    0.282267    0.339596     0.005394
PD1021   PD        0.288199    0.251037    0.337757     0.005394
PD1022   PD        0.287528    0.285076    0.306440     0.005394
PD1023   PD        0.323427    0.249391    0.305547     0.005394
AU1024   AU        0.322470    0.285920    0.339052     0.007504
AU1025   AU        0.357827    0.249455    0.338652     0.007504
AU1026   AU        0.358107    0.284418    0.304359     0.007504
AU1027   AU        0.394673    0.248837    0.306441     0.007504
AU1028   AU        0.393459    0.284063    0.337366     0.007504
AU1029   AU        0.430025    0.248927    0.339557     0.007504
PD1030   PD        0.429770    0.284057    0.305558     0.005394
PD1031   PD        0.464753    0.247560    0.306745     0.005394
AU1032   AU        0.466569    0.283824    0.337540     0.007504
PD1033   PD        0.502695    0.245083    0.337184     0.005394
PD1034   PD        0.503098    0.281873    0.304947     0.005394
AU1035   AU        0.537619    0.247525    0.305207     0.007504
PD1036   PD        0.533433    0.281815    0.338328     0.005394
AU1037   AU        0.572373    0.249595    0.339118     0.007504
PD1038   PD        0.573729    0.284268    0.304407     0.005394
AU1039   AU        0.606760    0.249692    0.302664     0.007504
AU1040   AU        0.610072    0.284533    0.337800     0.007504
AU1041   AU        0.644813    0.248830    0.339206     0.007504
PD1042   PD        0.645953    0.286445    0.306511     0.005394
PD1043   PD        0.678051    0.251602    0.307261     0.005394
PD1044   PD        0.679258    0.285398    0.339935     0.005394
AU1045   AU        0.714130    0.251820    0.338286     0.007504
PD1046   PD        0.716585    0.287704    0.302527     0.005394
PD1047   PD        0.748147    0.251624    0.302305     0.005394
PD1048   PD        0.751008    0.285252    0.334106     0.005394
PD1049   PD        0.784907    0.251578    0.336357     0.005394
PD1050   PD        0.786201    0.283127    0.305041     0.005394
PD1051   PD        0.821598    0.286470    0.337670     0.005394
PD1052   PD        0.074790    0.317142    0.336133     0.005394
PD1053   PD        0.073953    0.353134    0.302058     0.005394
AU1054   AU        0.113171    0.321011    0.306985     0.007504
AU1055   AU        0.109108    0.355842    0.338871     0.007504
AU1056   AU        0.147734    0.319586    0.339164     0.007504
AU1057   AU        0.146152    0.355480    0.304383     0.007504
PD1058   PD        0.182561    0.320471    0.306016     0.005394
AU1059   AU        0.183399    0.353496    0.338948     0.007504
AU1060   AU        0.218664    0.318969    0.336656     0.007504
AU1061   AU        0.219330    0.355042    0.303677     0.007504
PD1062   PD        0.253162    0.319757    0.304613     0.005394
PD1063   PD        0.251960    0.355616    0.338950     0.005394
AU1064   AU        0.287263    0.319876    0.339094     0.007504
AU1065   AU        0.286914    0.354011    0.304869     0.007504
AU1066   AU        0.322207    0.318902    0.304480     0.007504
AU1067   AU        0.321744    0.356127    0.337460     0.007504
PD1068   PD        0.358413    0.317544    0.338885     0.005394
PD1069   PD        0.358560    0.354402    0.304930     0.005394
PD1070   PD        0.392293    0.318751    0.304635     0.005394
AU1071   AU        0.393824    0.355247    0.336662     0.007504
AU1072   AU        0.429473    0.320997    0.336972     0.007504
PD1073   PD        0.429481    0.353358    0.303042     0.005394
PD1074   PD        0.462451    0.318022    0.304486     0.005394
PD1075   PD        0.467616    0.356511    0.338630     0.005394
AU1076   AU        0.499586    0.320097    0.339920     0.007504
PD1077   PD        0.501720    0.355611    0.306993     0.005394
PD1078   PD        0.536109    0.321051    0.307318     0.005394
PD1079   PD        0.540246    0.354837    0.339265     0.005394
PD1080   PD        0.572067    0.320980    0.337513     0.005394
PD1081   PD        0.575543    0.357718    0.306581     0.005394
AU1082   AU        0.609993    0.320346    0.304302     0.007504
AU1083   AU        0.611375    0.355561    0.339624     0.007504
AU1084   AU        0.646248    0.320933    0.340114     0.007504
PD1085   PD        0.646398    0.354173    0.302896     0.005394
PD1086   PD        0.681884    0.320985    0.306165     0.005394
PD1087   PD        0.681535    0.357195    0.339046     0.005394
PD1088   PD        0.715287    0.321691    0.336473     0.005394
PD1089   PD        0.718719    0.356994    0.302825     0.005394
PD1090   PD        0.752080    0.321035    0.301600     0.005394
AU1091   AU        0.754833    0.356903    0.338736     0.007504
PD1092   PD        0.784943    0.324107    0.335134     0.005394
AU1093   AU        0.787896    0.357861    0.304027     0.007504
AU1094   AU        0.821269    0.319621    0.304300     0.007504
PD1095   PD        0.820736    0.355604    0.339430     0.005394
AU1096   AU        0.856579    0.320217    0.337415     0.007504
PD1097   PD        0.858065    0.354686    0.300599     0.005394
AU1098   AU        0.075252    0.391238    0.334354     0.007504
PD1099   PD        0.035441    0.436344    0.273722     0.005394
AU1100   AU        0.112183    0.393908    0.305950     0.007504
PD1101   PD        0.113218    0.425866    0.339491     0.005394
AU1102   AU        0.147618    0.389377    0.339043     0.007504
PD1103   PD        0.149922    0.427957    0.304086     0.005394
PD1104   PD        0.181711    0.391190    0.307908     0.005394
AU1105   AU        0.180833    0.425081    0.339856     0.007504
AU1106   AU        0.218883    0.390015    0.337774     0.007504
PD1107   PD        0.218143    0.425928    0.305156     0.005394
AU1108   AU        0.255674    0.392847    0.304964     0.007504
AU1109   AU        0.254925    0.427379    0.338374     0.007504
AU1110   AU        0.286845    0.391993    0.338718     0.007504
AU1111   AU        0.289359    0.429053    0.303482     0.007504
AU1112   AU        0.323319    0.392751    0.304403     0.007504
PD1113   PD        0.324734    0.427374    0.338155     0.005394
PD1114   PD        0.360655    0.393896    0.338803     0.005394
PD1115   PD        0.360806    0.428271    0.305704     0.005394
PD1116   PD        0.394813    0.393316    0.304899     0.005394
PD1117   PD        0.393503    0.428497    0.338747     0.005394
AU1118   AU        0.431094    0.390606    0.338369     0.007504
PD1119   PD        0.428683    0.431115    0.302549     0.005394
PD1120   PD        0.466844    0.390759    0.304203     0.005394
AU1121   AU        0.466199    0.426282    0.337451     0.007504
PD1122   PD        0.504236    0.389383    0.339559     0.005394
PD1123   PD        0.501869    0.424562    0.305414     0.005394
PD1124   PD        0.540635    0.391684    0.305553     0.005394
AU1125   AU        0.536628    0.427725    0.337867     0.007504
PD1126   PD        0.575860    0.391164    0.340089     0.005394
AU1127   AU        0.572961    0.428296    0.306377     0.007504
PD1128   PD        0.611756    0.391929    0.305647     0.005394
AU1129   AU        0.609741    0.426615    0.337691     0.007504
PD1130   PD        0.642977    0.390245    0.335579     0.005394
PD1131   PD        0.643414    0.425732    0.301382     0.005394
PD1132   PD        0.682774    0.389742    0.304789     0.005394
AU1133   AU        0.681412    0.427043    0.336324     0.007504
AU1134   AU        0.717708    0.388689    0.339146     0.007504
PD1135   PD        0.717115    0.425396    0.304951     0.005394
AU1136   AU        0.751752    0.390609    0.303629     0.007504
PD1137   PD        0.751709    0.425555    0.338737     0.005394
AU1138   AU        0.787635    0.390623    0.339601     0.007504
PD1139   PD        0.788753    0.426713    0.302693     0.005394
PD1140   PD        0.825764    0.390721    0.304553     0.005394
PD1141   PD        0.822456    0.427242    0.336737     0.005394
PD1142   PD        0.856539    0.392847    0.336299     0.005394
AU1143   AU        0.860467    0.427804    0.305210     0.007504
PD1144   PD        0.070757    0.457785    0.333039     0.005394
PD1145   PD        0.077090    0.500679    0.305988     0.005394
PD1146   PD        0.108925    0.462652    0.306434     0.005394
PD1147   PD        0.111454    0.497695    0.338907     0.005394
PD1148   PD        0.147700    0.462585    0.336266     0.005394
PD1149   PD        0.144708    0.499023    0.305759     0.005394
AU1150   AU        0.183388    0.463314    0.303954     0.007504
PD1151   PD        0.180997    0.498808    0.336761     0.005394
AU1152   AU        0.215795    0.460877    0.337979     0.007504
AU1153   AU        0.217570    0.500173    0.305783     0.007504
AU1154   AU        0.253880    0.462660    0.304558     0.007504
AU1155   AU        0.252136    0.497769    0.338783     0.007504
AU1156   AU        0.288101    0.463498    0.338109     0.007504
AU1157   AU        0.291175    0.496003    0.303867     0.007504
AU1158   AU        0.326330    0.462804    0.303841     0.007504
AU1159   AU        0.325928    0.498454    0.336858     0.007504
AU1160   AU        0.361064    0.463488    0.339713     0.007504
PD1161   PD        0.360384    0.499958    0.303342     0.005394
PD1162   PD        0.396966    0.461296    0.303108     0.005394
AU1163   AU        0.395166    0.499899    0.339060     0.007504
PD1164   PD        0.430531    0.462307    0.338366     0.005394
PD1165   PD        0.433774    0.497459    0.304404     0.005394
PD1166   PD        0.466328    0.464499    0.304504     0.005394
AU1167   AU        0.464004    0.496601    0.338387     0.007504
AU1168   AU        0.499981    0.463524    0.338146     0.007504
PD1169   PD        0.500104    0.498706    0.303536     0.005394
AU1170   AU        0.538382    0.463171    0.304289     0.007504
PD1171   PD        0.536987    0.498018    0.336608     0.005394
AU1172   AU        0.574283    0.461629    0.338385     0.007504
PD1173   PD        0.574745    0.495675    0.306321     0.005394
AU1174   AU        0.610055    0.462929    0.305019     0.007504
PD1175   PD        0.609271    0.498050    0.338126     0.005394
PD1176   PD        0.645029    0.461297    0.335084     0.005394
AU1177   AU        0.645859    0.498172    0.303745     0.007504
PD1178   PD        0.679620    0.461580    0.304345     0.005394
AU1179   AU        0.681631    0.499150    0.338448     0.007504
PD1180   PD        0.716049    0.462824    0.338223     0.005394
PD1181   PD        0.715447    0.499170    0.306518     0.005394
PD1182   PD        0.749551    0.459971    0.305437     0.005394
PD1183   PD        0.753386    0.499337    0.337052     0.005394
PD1184   PD        0.784765    0.462683    0.336924     0.005394
AU1185   AU        0.787193    0.497771    0.303171     0.007504
AU1186   AU        0.823678    0.462790    0.305024     0.007504
AU1187   AU        0.821078    0.498737    0.336355     0.007504
AU1188   AU        0.858527    0.464185    0.335341     0.007504
AU1189   AU        0.856466    0.500259    0.302001     0.007504
AU1190   AU        0.077053    0.532154    0.337470     0.007504
PD1191   PD        0.074598    0.570434    0.307011     0.005394
PD1192   PD        0.110968    0.536089    0.301985     0.005394
AU1193   AU        0.112376    0.569262    0.336335     0.007504
PD1194   PD        0.146615    0.536726    0.335899     0.005394
PD1195   PD        0.144618    0.572345    0.303185     0.005394
PD1196   PD        0.181668    0.535580    0.305887     0.005394
AU1197   AU        0.181129    0.571340    0.336760     0.007504
AU1198   AU        0.217965    0.535986    0.336277     0.007504
PD1199   PD        0.219661    0.571435    0.303458     0.005394
AU1200   AU        0.252883    0.532580    0.303212     0.007504
AU1201   AU        0.254679    0.569059    0.336256     0.007504
AU1202   AU        0.288788    0.533771    0.337985     0.007504
PD1203   PD        0.288878    0.570172    0.304139     0.005394
PD1204   PD        0.324667    0.532305    0.302396     0.005394
AU1205   AU        0.324876    0.568986    0.337370     0.007504
AU1206   AU        0.360078    0.532574    0.337947     0.007504
AU1207   AU        0.359766    0.570505    0.303190     0.007504
PD1208   PD        0.395353    0.534520    0.305082     0.005394
AU1209   AU        0.393533    0.568731    0.336991     0.007504
PD1210   PD        0.430974    0.535576    0.338166     0.005394
AU1211   AU        0.429836    0.568302    0.304998     0.007504
PD1212   PD        0.465852    0.532842    0.304054     0.005394
AU1213   AU        0.465797    0.567805    0.335690     0.007504
AU1214   AU        0.500880    0.533573    0.338725     0.007504
PD1215   PD        0.501086    0.568837    0.304975     0.005394
AU1216   AU        0.538315    0.533789    0.305230     0.007504
AU1217   AU        0.538657    0.569061    0.337087     0.007504
PD1218   PD        0.572280    0.534083    0.337197     0.005394
AU1219   AU        0.575135    0.570103    0.303269     0.007504
PD1220   PD        0.608276    0.532625    0.303541     0.005394
PD1221   PD        0.609957    0.572089    0.339038     0.005394
AU1222   AU        0.643161    0.535277    0.336840     0.007504
AU1223   AU        0.642698    0.569349    0.303098     0.007504
PD1224   PD        0.678192    0.533101    0.305817     0.005394
AU1225   AU        0.679464    0.569658    0.338191     0.007504
AU1226   AU        0.717334    0.535703    0.338209     0.007504
AU1227   AU        0.715201    0.569004    0.302200     0.007504
PD1228   PD        0.753175    0.536222    0.305326     0.005394
AU1229   AU        0.751894    0.570425    0.338013     0.007504
AU1230   AU        0.788895    0.536264    0.338510     0.007504
PD1231   PD        0.787826    0.570301    0.305630     0.005394
AU1232   AU        0.821979    0.535434    0.302683     0.007504
PD1233   PD        0.825304    0.566280    0.339149     0.005394
PD1234   PD        0.856007    0.535304    0.336292     0.005394
AU1235   AU        0.855180    0.569436    0.303281     0.007504
PD1236   PD        0.075784    0.606378    0.334867     0.005394
AU1237   AU        0.112637    0.605179    0.304002     0.007504
AU1238   AU        0.111633    0.640914    0.334303     0.007504
AU1239   AU        0.147567    0.606021    0.335897     0.007504
AU1240   AU        0.148484    0.640040    0.303655     0.007504
AU1241   AU        0.182667    0.604834    0.303443     0.007504
AU1242   AU        0.184320    0.639816    0.336581     0.007504
AU1243   AU        0.220041    0.605284    0.335916     0.007504
AU1244   AU        0.217320    0.640421    0.303590     0.007504
PD1245   PD        0.250760    0.605563    0.302956     0.005394
PD1246   PD        0.254398    0.641762    0.335868     0.005394
PD1247   PD        0.290024    0.603499    0.338925     0.005394
AU1248   AU        0.287868    0.640329    0.303852     0.007504
PD1249   PD        0.324321    0.605309    0.303320     0.005394
AU1250   AU        0.324103    0.642068    0.339739     0.007504
AU1251   AU        0.358825    0.606663    0.337968     0.007504
AU1252   AU        0.361087    0.639929    0.303679     0.007504
AU1253   AU        0.394774    0.604775    0.304031     0.007504
PD1254   PD        0.396326    0.641236    0.335437     0.005394
AU1255   AU        0.430477    0.603586    0.336848     0.007504
AU1256   AU        0.431555    0.639689    0.305041     0.007504
PD1257   PD        0.468551    0.605773    0.305670     0.005394
PD1258   PD        0.465724    0.643072    0.335905     0.005394
PD1259   PD        0.501172    0.605840    0.338665     0.005394
PD1260   PD        0.503180    0.637484    0.302414     0.005394
AU1261   AU        0.538888    0.603852    0.303014     0.007504
AU1262   AU        0.538208    0.638598    0.337345     0.007504
PD1263   PD        0.574817    0.602913    0.338773     0.005394
AU1264   AU        0.572996    0.641685    0.303043     0.007504
PD1265   PD        0.607357    0.606822    0.303682     0.005394
PD1266   PD        0.609082    0.640533    0.337078     0.005394
AU1267   AU        0.645993    0.605709    0.335188     0.007504
PD1268   PD        0.644169    0.639920    0.303132     0.005394
PD1269   PD        0.680835    0.606618    0.301403     0.005394
AU1270   AU        0.679310    0.639612    0.335952     0.007504
AU1271   AU        0.717802    0.604727    0.337989     0.007504
PD1272   PD        0.717394    0.641114    0.306242     0.005394
PD1273   PD        0.750955    0.606867    0.305024     0.005394
AU1274   AU        0.751951    0.638291    0.338680     0.007504
AU1275   AU        0.787162    0.606044    0.337213     0.007504
AU1276   AU        0.788049    0.638427    0.304271     0.007504
PD1277   PD        0.858934    0.606287    0.270628     0.005394
AU1278   AU        0.821212    0.640345    0.338886     0.007504
PD1279   PD        0.860600    0.604296    0.336740     0.005394
AU1280   AU        0.148231    0.673985    0.337211     0.007504
PD1281   PD        0.149427    0.710135    0.304218     0.005394
AU1282   AU        0.183491    0.675171    0.304574     0.007504
AU1283   AU        0.184460    0.710359    0.338169     0.007504
AU1284   AU        0.219152    0.673728    0.335474     0.007504
AU1285   AU        0.218202    0.710204    0.303555     0.007504
PD1286   PD        0.252678    0.674943    0.303702     0.005394
AU1287   AU        0.255654    0.713641    0.336652     0.007504
PD1288   PD        0.287681    0.675812    0.336733     0.005394
PD1289   PD        0.290173    0.711087    0.303851     0.005394
PD1290   PD        0.322972    0.675348    0.301518     0.005394
AU1291   AU        0.323215    0.711753    0.336992     0.007504
AU1292   AU        0.360997    0.675411    0.337150     0.007504
PD1293   PD        0.358694    0.711196    0.306078     0.005394
AU1294   AU        0.397382    0.676393    0.303363     0.007504
AU1295   AU        0.394667    0.710847    0.338161     0.007504
PD1296   PD        0.432760    0.678257    0.334996     0.005394
AU1297   AU        0.430685    0.711220    0.302888     0.007504
PD1298   PD        0.467981    0.675547    0.305484     0.005394
PD1299   PD        0.466799    0.712521    0.336215     0.005394
PD1300   PD        0.499853    0.676908    0.338514     0.005394
AU1301   AU        0.503280    0.712363    0.305634     0.007504
AU1302   AU        0.538576    0.677137    0.304141     0.007504
AU1303   AU        0.538427    0.710818    0.338180     0.007504
AU1304   AU        0.575091    0.677143    0.336181     0.007504
AU1305   AU        0.575156    0.711737    0.304878     0.007504
PD1306   PD        0.608082    0.676753    0.305173     0.005394
AU1307   AU        0.610238    0.712289    0.336725     0.007504
PD1308   PD        0.647388    0.676039    0.336826     0.005394
AU1309   AU        0.644283    0.713161    0.303957     0.007504
AU1310   AU        0.681463    0.675228    0.304912     0.007504
PD1311   PD        0.680155    0.713594    0.332416     0.005394
PD1312   PD        0.716482    0.676611    0.338769     0.005394
AU1313   AU        0.717719    0.712278    0.305177     0.007504
PD1314   PD        0.751730    0.673934    0.304389     0.005394
AU1315   AU        0.750526    0.710962    0.337139     0.007504
PD1316   PD        0.786087    0.676031    0.336938     0.005394
AU1317   AU        0.786882    0.709748    0.304744     0.007504
PD1318   PD        0.185129    0.746250    0.302822     0.005394
PD1319   PD        0.218859    0.747508    0.335005     0.005394
PD1320   PD        0.219365    0.782971    0.304364     0.005394
AU1321   AU        0.254642    0.748767    0.304646     0.007504
AU1322   AU        0.254332    0.787249    0.336921     0.007504
AU1323   AU        0.288293    0.748420    0.337156     0.007504
PD1324   PD        0.287389    0.782660    0.304085     0.005394
PD1325   PD        0.325301    0.744140    0.304285     0.005394
AU1326   AU        0.324386    0.783425    0.335687     0.007504
PD1327   PD        0.359523    0.748254    0.334437     0.005394
PD1328   PD        0.361617    0.783943    0.304665     0.005394
PD1329   PD        0.394087    0.745334    0.303320     0.005394
PD1330   PD        0.397060    0.781285    0.336649     0.005394
AU1331   AU        0.431081    0.746728    0.336120     0.007504
AU1332   AU        0.432556    0.784729    0.303825     0.007504
AU1333   AU        0.467728    0.746402    0.305306     0.007504
PD1334   PD        0.470132    0.782086    0.336708     0.005394
AU1335   AU        0.502427    0.748830    0.337199     0.007504
AU1336   AU        0.502903    0.784556    0.304676     0.007504
PD1337   PD        0.538757    0.745801    0.303852     0.005394
PD1338   PD        0.538051    0.784037    0.337117     0.005394
AU1339   AU        0.573638    0.745995    0.337461     0.007504
AU1340   AU        0.573079    0.782978    0.303965     0.007504
AU1341   AU        0.608356    0.746655    0.304923     0.007504
AU1342   AU        0.609631    0.782294    0.335813     0.007504
AU1343   AU        0.644357    0.746597    0.337953     0.007504
AU1344   AU        0.644289    0.780575    0.304039     0.007504
PD1345   PD        0.683214    0.748798    0.304613     0.005394
AU1346   AU        0.679537    0.783568    0.336776     0.007504
AU1347   AU        0.717042    0.749616    0.336761     0.007504
PD1348   PD        0.714332    0.786624    0.302244     0.005394
PD1349   PD        0.753175    0.746932    0.305215     0.005394
PD1350   PD        0.292935    0.816157    0.340631     0.005394
AU1351   AU        0.327212    0.819715    0.305345     0.007504
PD1352   PD        0.286322    0.889546    0.334462     0.005394
AU1353   AU        0.361250    0.817559    0.339377     0.007504
PD1354   PD        0.359782    0.851873    0.302699     0.005394
AU1355   AU        0.395766    0.817035    0.306486     0.007504
PD1356   PD        0.397920    0.856499    0.336564     0.005394
AU1357   AU        0.431236    0.817728    0.338126     0.007504
PD1358   PD        0.434450    0.855145    0.305929     0.005394
PD1359   PD        0.468355    0.818794    0.304818     0.005394
PD1360   PD        0.501773    0.888317    0.338119     0.005394
AU1361   AU        0.502473    0.815187    0.340308     0.007504
PD1362   PD        0.501927    0.853356    0.304115     0.005394
AU1363   AU        0.538351    0.819184    0.305916     0.007504
AU1364   AU        0.538398    0.851429    0.339088     0.007504
AU1365   AU        0.573927    0.818159    0.337067     0.007504
AU1366   AU        0.572387    0.853393    0.300498     0.007504
AU1367   AU        0.608605    0.815500    0.305469     0.007504
PD1368   PD        0.608781    0.853240    0.338190     0.005394
AU1369   AU        0.643356    0.819250    0.338453     0.007504
PD1370   PD        0.291739    0.071542    0.372914     0.005394
PD1371   PD        0.323282    0.072014    0.407552     0.005394
PD1372   PD        0.360828    0.072611    0.374353     0.005394
PD1373   PD        0.396038    0.071253    0.407266     0.005394
PD1374   PD        0.432028    0.037688    0.403867     0.005394
PD1375   PD        0.427755    0.073012    0.372712     0.005394
PD1376   PD        0.464155    0.037226    0.371572     0.005394
AU1377   AU        0.464137    0.072719    0.402638     0.007504
PD1378   PD        0.498594    0.038158    0.405004     0.005394
PD1379   PD        0.500848    0.072636    0.372252     0.005394
AU1380   AU        0.536636    0.071568    0.404323     0.007504
AU1381   AU        0.571418    0.074483    0.370755     0.007504
PD1382   PD        0.608346    0.071905    0.402745     0.005394
PD1383   PD        0.641568    0.068405    0.372340     0.005394
PD1384   PD        0.183265    0.140738    0.403045     0.005394
PD1385   PD        0.220575    0.108057    0.404743     0.005394
AU1386   AU        0.218691    0.144369    0.370122     0.007504
PD1387   PD        0.254641    0.108775    0.368949     0.005394
PD1388   PD        0.254104    0.143235    0.403532     0.005394
PD1389   PD        0.286556    0.108588    0.406206     0.005394
AU1390   AU        0.289977    0.142424    0.372035     0.007504
AU1391   AU        0.323152    0.107097    0.372228     0.007504
PD1392   PD        0.323884    0.142563    0.406684     0.005394
AU1393   AU        0.359888    0.108863    0.405607     0.007504
AU1394   AU        0.357348    0.142828    0.373210     0.007504
AU1395   AU        0.393962    0.109684    0.372048     0.007504
PD1396   PD        0.396167    0.144014    0.405688     0.005394
AU1397   AU        0.429452    0.106307    0.405533     0.007504
PD1398   PD        0.432101    0.145185    0.371353     0.005394
PD1399   PD        0.467126    0.109191    0.371713     0.005394
AU1400   AU        0.468252    0.142815    0.403629     0.007504
AU1401   AU        0.502757    0.108403    0.404775     0.007504
AU1402   AU        0.503448    0.144439    0.370671     0.007504
AU1403   AU        0.538317    0.109084    0.371499     0.007504
AU1404   AU        0.538077    0.143950    0.403637     0.007504
PD1405   PD        0.571579    0.106672    0.405593     0.005394
PD1406   PD        0.575027    0.141615    0.370136     0.005394
AU1407   AU        0.609660    0.107638    0.370701     0.007504
PD1408   PD        0.609599    0.141988    0.406256     0.005394
AU1409   AU        0.643790    0.107565    0.402811     0.007504
AU1410   AU        0.642234    0.142907    0.371528     0.007504
PD1411   PD        0.679192    0.102662    0.370629     0.005394
AU1412   AU        0.680938    0.141515    0.403193     0.007504
PD1413   PD        0.672975    0.032251    0.373784     0.005394
PD1414   PD        0.716630    0.142284    0.373365     0.005394
PD1415   PD        0.751499    0.141344    0.403307     0.005394
PD1416   PD        0.113145    0.214348    0.404864     0.005394
PD1417   PD        0.145835    0.177733    0.403673     0.005394
AU1418   AU        0.147186    0.213790    0.371276     0.007504
AU1419   AU        0.182448    0.177506    0.371262     0.007504
AU1420   AU        0.183173    0.212942    0.403273     0.007504
AU1421   AU        0.218269    0.178180    0.403297     0.007504
PD1422   PD        0.217458    0.211701    0.370236     0.005394
PD1423   PD        0.254497    0.179611    0.370520     0.005394
AU1424   AU        0.252153    0.213133    0.404364     0.007504
PD1425   PD        0.288357    0.178998    0.403020     0.005394
PD1426   PD        0.287334    0.214613    0.371699     0.005394
AU1427   AU        0.321466    0.179125    0.370809     0.007504
AU1428   AU        0.324877    0.214619    0.401679     0.007504
AU1429   AU        0.357324    0.177071    0.405145     0.007504
PD1430   PD        0.360063    0.213927    0.369437     0.005394
AU1431   AU        0.394647    0.178282    0.370110     0.007504
AU1432   AU        0.393881    0.214006    0.405525     0.007504
PD1433   PD        0.429372    0.177096    0.405692     0.005394
AU1434   AU        0.432091    0.211051    0.372626     0.007504
PD1435   PD        0.468399    0.177752    0.370586     0.005394
AU1436   AU        0.464518    0.215810    0.404421     0.007504
AU1437   AU        0.501302    0.179141    0.406185     0.007504
PD1438   PD        0.501675    0.213301    0.370888     0.005394
PD1439   PD        0.538683    0.176626    0.372971     0.005394
PD1440   PD        0.540595    0.211881    0.405650     0.005394
PD1441   PD        0.575762    0.175353    0.404309     0.005394
PD1442   PD        0.574640    0.213983    0.371238     0.005394
PD1443   PD        0.611094    0.180760    0.370682     0.005394
PD1444   PD        0.609600    0.211546    0.403364     0.005394
AU1445   AU        0.645790    0.176229    0.404260     0.007504
AU1446   AU        0.643964    0.210310    0.371089     0.007504
AU1447   AU        0.679635    0.177464    0.371763     0.007504
AU1448   AU        0.679778    0.211394    0.402464     0.007504
AU1449   AU        0.716152    0.178059    0.403277     0.007504
AU1450   AU        0.716689    0.214437    0.371533     0.007504
AU1451   AU        0.751887    0.176657    0.370206     0.007504
AU1452   AU        0.751545    0.211246    0.404120     0.007504
PD1453   PD        0.785333    0.173205    0.406280     0.005394
PD1454   PD        0.784926    0.215792    0.367350     0.005394
PD1455   PD        0.855199    0.218749    0.436246     0.005394
PD1456   PD        0.072920    0.283505    0.368168     0.005394
PD1457   PD        0.112446    0.250450    0.369778     0.005394
PD1458   PD        0.111303    0.285882    0.404628     0.005394
AU1459   AU        0.147016    0.248545    0.403656     0.007504
PD1460   PD        0.146559    0.284064    0.370519     0.005394
AU1461   AU        0.182372    0.247954    0.370616     0.007504
PD1462   PD        0.181903    0.285150    0.402583     0.005394
PD1463   PD        0.217944    0.247208    0.403513     0.005394
PD1464   PD        0.215588    0.284187    0.372410     0.005394
PD1465   PD        0.255317    0.248879    0.371443     0.005394
AU1466   AU        0.251626    0.284035    0.403972     0.007504
PD1467   PD        0.288211    0.252013    0.406124     0.005394
AU1468   AU        0.288384    0.285384    0.369599     0.007504
AU1469   AU        0.323410    0.250013    0.369969     0.007504
AU1470   AU        0.323198    0.285815    0.403199     0.007504
AU1471   AU        0.359573    0.249814    0.405301     0.007504
PD1472   PD        0.358943    0.283323    0.372737     0.005394
PD1473   PD        0.398005    0.247587    0.371708     0.005394
AU1474   AU        0.394096    0.284378    0.404359     0.007504
AU1475   AU        0.429699    0.249153    0.404445     0.007504
AU1476   AU        0.427844    0.284397    0.370471     0.007504
AU1477   AU        0.465117    0.248205    0.370027     0.007504
AU1478   AU        0.465158    0.282281    0.404155     0.007504
AU1479   AU        0.501723    0.247514    0.405526     0.007504
AU1480   AU        0.500344    0.282646    0.373943     0.007504
AU1481   AU        0.535728    0.248164    0.372184     0.007504
AU1482   AU        0.538745    0.284281    0.403553     0.007504
PD1483   PD        0.571940    0.248868    0.403760     0.005394
AU1484   AU        0.571490    0.285773    0.369814     0.007504
AU1485   AU        0.607007    0.250206    0.371518     0.007504
PD1486   PD        0.607582    0.285134    0.404551     0.005394
AU1487   AU        0.643314    0.248585    0.402921     0.007504
AU1488   AU        0.644003    0.284389    0.370958     0.007504
PD1489   PD        0.679125    0.247279    0.372339     0.005394
AU1490   AU        0.680965    0.283415    0.403394     0.007504
AU1491   AU        0.715557    0.247839    0.405504     0.007504
AU1492   AU        0.714478    0.284399    0.371832     0.007504
PD1493   PD        0.748349    0.251674    0.370182     0.005394
AU1494   AU        0.748976    0.285300    0.402248     0.007504
PD1495   PD        0.783715    0.248485    0.403447     0.005394
PD1496   PD        0.786063    0.282771    0.367337     0.005394
AU1497   AU        0.820292    0.247148    0.369422     0.007504
PD1498   PD        0.819092    0.282839    0.401075     0.005394
PD1499   PD        0.864749    0.288859    0.371178     0.005394
AU1500   AU        0.074172    0.320885    0.406599     0.007504
PD1501   PD        0.076983    0.356454    0.372324     0.005394
AU1502   AU        0.109254    0.320382    0.371263     0.007504
PD1503   PD        0.112508    0.355698    0.407607     0.005394
PD1504   PD        0.146878    0.319731    0.403080     0.005394
AU1505   AU        0.145645    0.353423    0.372095     0.007504
AU1506   AU        0.181780    0.320779    0.372674     0.007504
PD1507   PD        0.181972    0.356285    0.403741     0.005394
PD1508   PD        0.217923    0.318487    0.403032     0.005394
AU1509   AU        0.218496    0.354900    0.371836     0.007504
AU1510   AU        0.251400    0.318757    0.370328     0.007504
AU1511   AU        0.254938    0.354783    0.404320     0.007504
AU1512   AU        0.286525    0.318436    0.403886     0.007504
AU1513   AU        0.286458    0.354548    0.370921     0.007504
AU1514   AU        0.323607    0.321358    0.371192     0.007504
AU1515   AU        0.322436    0.355243    0.402876     0.007504
AU1516   AU        0.358020    0.319400    0.403124     0.007504
AU1517   AU        0.358299    0.355500    0.371183     0.007504
AU1518   AU        0.393698    0.320646    0.371126     0.007504
AU1519   AU        0.394054    0.354914    0.404355     0.007504
AU1520   AU        0.430644    0.320150    0.404024     0.007504
PD1521   PD        0.431080    0.355736    0.370721     0.005394
PD1522   PD        0.463711    0.319241    0.370343     0.005394
PD1523   PD        0.464930    0.354675    0.406204     0.005394
PD1524   PD        0.501146    0.318412    0.402942     0.005394
AU1525   AU        0.500914    0.355833    0.372135     0.007504
AU1526   AU        0.535921    0.318713    0.370541     0.007504
PD1527   PD        0.537372    0.355630    0.403749     0.005394
PD1528   PD        0.571065    0.319362    0.401404     0.005394
AU1529   AU        0.575537    0.355240    0.370604     0.007504
AU1530   AU        0.607484    0.319422    0.372351     0.007504
PD1531   PD        0.608655    0.353763    0.403110     0.005394
PD1532   PD        0.644870    0.317222    0.404318     0.005394
AU1533   AU        0.644542    0.354305    0.372330     0.007504
AU1534   AU        0.679162    0.322154    0.371824     0.007504
AU1535   AU        0.679626    0.357169    0.404297     0.007504
AU1536   AU        0.715364    0.318682    0.404612     0.007504
AU1537   AU        0.715299    0.354168    0.370760     0.007504
PD1538   PD        0.752572    0.317860    0.368378     0.005394
AU1539   AU        0.750910    0.354014    0.404857     0.007504
PD1540   PD        0.783702    0.319559    0.403877     0.005394
PD1541   PD        0.788634    0.354829    0.371027     0.005394
AU1542   AU        0.824725    0.320181    0.371740     0.007504
PD1543   PD        0.823579    0.356087    0.402667     0.005394
PD1544   PD        0.857956    0.319879    0.405813     0.005394
AU1545   AU        0.861978    0.353800    0.370957     0.007504
AU1546   AU        0.038922    0.429146    0.404793     0.007504
PD1547   PD        0.076289    0.389741    0.405169     0.005394
PD1548   PD        0.073258    0.423527    0.370494     0.005394
AU1549   AU        0.112600    0.392030    0.370195     0.007504
AU1550   AU        0.109495    0.427387    0.403978     0.007504
AU1551   AU        0.148809    0.391401    0.401632     0.007504
AU1552   AU        0.147433    0.426422    0.370111     0.007504
AU1553   AU        0.185045    0.390184    0.371198     0.007504
AU1554   AU        0.181480    0.428837    0.404870     0.007504
PD1555   PD        0.217773    0.392850    0.404294     0.005394
AU1556   AU        0.218763    0.426993    0.371048     0.007504
AU1557   AU        0.252814    0.391227    0.371891     0.007504
AU1558   AU        0.254672    0.426823    0.402898     0.007504
AU1559   AU        0.288638    0.392472    0.404228     0.007504
PD1560   PD        0.290920    0.428317    0.369435     0.005394
PD1561   PD        0.322979    0.388794    0.370229     0.005394
AU1562   AU        0.323936    0.425427    0.400976     0.007504
AU1563   AU        0.359349    0.389739    0.403354     0.007504
PD1564   PD        0.358891    0.423543    0.373278     0.005394
AU1565   AU        0.394527    0.388339    0.371114     0.007504
AU1566   AU        0.393703    0.424653    0.403531     0.007504
AU1567   AU        0.429395    0.390463    0.403315     0.007504
AU1568   AU        0.428369    0.426440    0.369371     0.007504
PD1569   PD        0.465099    0.391396    0.369821     0.005394
PD1570   PD        0.466584    0.427102    0.400473     0.005394
PD1571   PD        0.501543    0.393172    0.405044     0.005394
AU1572   AU        0.502192    0.427082    0.370913     0.007504
AU1573   AU        0.538867    0.391495    0.371448     0.007504
AU1574   AU        0.537927    0.426687    0.403716     0.007504
AU1575   AU        0.573324    0.393027    0.404607     0.007504
AU1576   AU        0.573083    0.425467    0.370791     0.007504
AU1577   AU        0.609232    0.390593    0.372983     0.007504
AU1578   AU        0.609063    0.427996    0.403666     0.007504
AU1579   AU        0.645120    0.392640    0.403644     0.007504
AU1580   AU        0.644051    0.424214    0.370915     0.007504
AU1581   AU        0.679370    0.392577    0.369878     0.007504
AU1582   AU        0.679105    0.426873    0.404747     0.007504
AU1583   AU        0.717178    0.392021    0.405287     0.007504
PD1584   PD        0.718788    0.426815    0.369285     0.005394
AU1585   AU        0.752577    0.389909    0.373256     0.007504
AU1586   AU        0.753231    0.427658    0.406423     0.007504
PD1587   PD        0.791230    0.390238    0.404448     0.005394
AU1588   AU        0.786833    0.426783    0.371019     0.007504
PD1589   PD        0.822455    0.390820    0.371738     0.005394
PD1590   PD        0.825697    0.427798    0.403163     0.005394
AU1591   AU        0.855920    0.391810    0.404328     0.007504
PD1592   PD        0.858758    0.425992    0.370368     0.005394
AU1593   AU        0.890520    0.428239    0.403568     0.007504
PD1594   PD        0.004253    0.465509    0.409097     0.005394
PD1595   PD        0.042366    0.536565    0.370528     0.005394
PD1596   PD        0.074356    0.464215    0.404267     0.005394
AU1597   AU        0.074020    0.497864    0.370363     0.007504
AU1598   AU        0.112210    0.461227    0.370040     0.007504
AU1599   AU        0.111419    0.498072    0.403183     0.007504
AU1600   AU        0.145263    0.462844    0.402584     0.007504
PD1601   PD        0.147707    0.496801    0.367701     0.005394
AU1602   AU        0.181817    0.461880    0.371110     0.007504
PD1603   PD        0.182467    0.496851    0.401576     0.005394
PD1604   PD        0.215877    0.462377    0.404012     0.005394
AU1605   AU        0.216675    0.498045    0.370921     0.007504
AU1606   AU        0.253514    0.463993    0.371111     0.007504
PD1607   PD        0.253089    0.500412    0.399924     0.005394
AU1608   AU        0.290159    0.462877    0.402634     0.007504
AU1609   AU        0.291417    0.499126    0.370318     0.007504
PD1610   PD        0.324476    0.462633    0.370529     0.005394
AU1611   AU        0.323357    0.497131    0.403128     0.007504
AU1612   AU        0.358604    0.462274    0.403034     0.007504
AU1613   AU        0.360559    0.498157    0.370575     0.007504
PD1614   PD        0.395434    0.464105    0.373143     0.005394
AU1615   AU        0.395478    0.498990    0.403579     0.007504
AU1616   AU        0.428660    0.461896    0.403926     0.007504
AU1617   AU        0.430868    0.499222    0.371175     0.007504
PD1618   PD        0.465274    0.463364    0.371506     0.005394
PD1619   PD        0.465692    0.497781    0.403058     0.005394
PD1620   PD        0.502353    0.462115    0.403557     0.005394
AU1621   AU        0.501543    0.498764    0.370255     0.007504
AU1622   AU        0.537313    0.462484    0.367867     0.007504
AU1623   AU        0.536517    0.496894    0.403408     0.007504
AU1624   AU        0.574037    0.460995    0.403567     0.007504
AU1625   AU        0.572683    0.499197    0.370901     0.007504
AU1626   AU        0.610630    0.462844    0.368825     0.007504
PD1627   PD        0.608875    0.498047    0.402024     0.005394
PD1628   PD        0.643634    0.462117    0.406074     0.005394
PD1629   PD        0.645622    0.497911    0.370190     0.005394
AU1630   AU        0.681010    0.462743    0.369087     0.007504
PD1631   PD        0.680686    0.495726    0.405076     0.005394
AU1632   AU        0.715787    0.461737    0.403636     0.007504
AU1633   AU        0.716484    0.497540    0.370458     0.007504
AU1634   AU        0.750874    0.462260    0.371309     0.007504
AU1635   AU        0.752157    0.499665    0.405030     0.007504
PD1636   PD        0.786058    0.463782    0.401970     0.005394
AU1637   AU        0.786180    0.497369    0.370397     0.007504
AU1638   AU        0.824076    0.462983    0.371811     0.007504
PD1639   PD        0.821496    0.497396    0.404363     0.005394
PD1640   PD        0.856790    0.463075    0.405298     0.005394
AU1641   AU        0.860554    0.496688    0.370829     0.007504
PD1642   PD        0.895989    0.424846    0.336233     0.005394
PD1643   PD        0.894610    0.501188    0.407245     0.005394
AU1644   AU        0.075047    0.535223    0.403337     0.007504
AU1645   AU        0.080592    0.569172    0.370228     0.007504
AU1646   AU        0.112392    0.533288    0.370445     0.007504
PD1647   PD        0.111715    0.567509    0.401308     0.005394
PD1648   PD        0.146752    0.534872    0.401378     0.005394
AU1649   AU        0.147887    0.568802    0.370255     0.007504
AU1650   AU        0.183016    0.534001    0.371599     0.007504
PD1651   PD        0.181063    0.573359    0.404462     0.005394
PD1652   PD        0.215698    0.532680    0.403333     0.005394
PD1653   PD        0.216784    0.571766    0.370805     0.005394
PD1654   PD        0.253334    0.534440    0.371636     0.005394
AU1655   AU        0.253060    0.570896    0.403619     0.007504
PD1656   PD        0.288411    0.534031    0.404361     0.005394
PD1657   PD        0.288387    0.570749    0.368190     0.005394
PD1658   PD        0.325416    0.534325    0.369887     0.005394
AU1659   AU        0.323019    0.569046    0.404074     0.007504
AU1660   AU        0.358718    0.533286    0.404622     0.007504
PD1661   PD        0.363473    0.569615    0.371160     0.005394
AU1662   AU        0.395655    0.534772    0.371242     0.007504
AU1663   AU        0.395293    0.567922    0.404083     0.007504
AU1664   AU        0.431814    0.532924    0.405499     0.007504
PD1665   PD        0.430861    0.570158    0.371889     0.005394
AU1666   AU        0.464337    0.533482    0.369131     0.007504
PD1667   PD        0.467495    0.568930    0.403581     0.005394
AU1668   AU        0.502589    0.534756    0.402351     0.007504
PD1669   PD        0.502214    0.571483    0.370786     0.005394
PD1670   PD        0.536551    0.532187    0.370884     0.005394
AU1671   AU        0.537298    0.569250    0.404493     0.007504
PD1672   PD        0.571531    0.535698    0.403325     0.005394
PD1673   PD        0.573282    0.570717    0.373007     0.005394
AU1674   AU        0.608576    0.533814    0.370904     0.007504
AU1675   AU        0.609522    0.572248    0.402526     0.007504
PD1676   PD        0.646699    0.533375    0.404129     0.005394
PD1677   PD        0.646068    0.568905    0.371375     0.005394
AU1678   AU        0.680586    0.535282    0.371739     0.007504
AU1679   AU        0.679244    0.571265    0.402080     0.007504
AU1680   AU        0.716313    0.534947    0.405016     0.007504
AU1681   AU        0.713130    0.569771    0.371798     0.007504
PD1682   PD        0.750942    0.533570    0.371557     0.005394
AU1683   AU        0.750449    0.570332    0.404037     0.007504
AU1684   AU        0.787001    0.533685    0.405235     0.007504
AU1685   AU        0.787998    0.569125    0.371148     0.007504
AU1686   AU        0.822937    0.531553    0.371934     0.007504
PD1687   PD        0.822324    0.567408    0.401564     0.005394
PD1688   PD        0.857680    0.530653    0.400604     0.005394
PD1689   PD        0.858437    0.568293    0.370789     0.005394
PD1690   PD        0.078829    0.604828    0.402849     0.005394
PD1691   PD        0.022470    0.664531    0.375169     0.005394
AU1692   AU        0.113389    0.605080    0.371140     0.007504
AU1693   AU        0.112762    0.641551    0.404264     0.007504
AU1694   AU        0.147012    0.606124    0.403366     0.007504
AU1695   AU        0.147399    0.641366    0.368657     0.007504
AU1696   AU        0.183165    0.605666    0.368048     0.007504
AU1697   AU        0.181856    0.640475    0.401839     0.007504
AU1698   AU        0.218363    0.605074    0.403303     0.007504
AU1699   AU        0.217567    0.640543    0.369526     0.007504
PD1700   PD        0.254057    0.605648    0.369802     0.005394
AU1701   AU        0.251957    0.641768    0.402764     0.007504
AU1702   AU        0.289721    0.604229    0.403233     0.007504
PD1703   PD        0.289493    0.641340    0.373117     0.005394
AU1704   AU        0.324131    0.604003    0.373009     0.007504
PD1705   PD        0.325051    0.641413    0.404521     0.005394
PD1706   PD        0.361864    0.602497    0.404747     0.005394
AU1707   AU        0.359730    0.639363    0.372418     0.007504
PD1708   PD        0.396049    0.605809    0.369387     0.005394
PD1709   PD        0.398425    0.643163    0.404362     0.005394
AU1710   AU        0.431278    0.606560    0.403845     0.007504
AU1711   AU        0.429776    0.642187    0.370250     0.007504
PD1712   PD        0.466473    0.606512    0.371331     0.005394
AU1713   AU        0.467469    0.641016    0.404838     0.007504
AU1714   AU        0.502437    0.606683    0.402307     0.007504
PD1715   PD        0.501586    0.641987    0.370210     0.005394
AU1716   AU        0.539459    0.604394    0.371899     0.007504
PD1717   PD        0.536734    0.640437    0.404127     0.005394
AU1718   AU        0.574485    0.604874    0.404177     0.007504
PD1719   PD        0.573885    0.639093    0.371643     0.005394
PD1720   PD        0.609609    0.607089    0.369080     0.005394
AU1721   AU        0.609577    0.641184    0.402481     0.007504
PD1722   PD        0.643081    0.606782    0.406545     0.005394
AU1723   AU        0.643879    0.642053    0.369055     0.007504
AU1724   AU        0.678504    0.605317    0.369714     0.007504
AU1725   AU        0.680826    0.641019    0.403922     0.007504
PD1726   PD        0.715943    0.603303    0.404718     0.005394
PD1727   PD        0.716631    0.640155    0.372577     0.005394
PD1728   PD        0.751002    0.604068    0.370378     0.005394
PD1729   PD        0.754131    0.636846    0.402587     0.005394
AU1730   AU        0.787945    0.605058    0.403964     0.007504
AU1731   AU        0.788392    0.639014    0.371601     0.007504
AU1732   AU        0.822328    0.603006    0.369133     0.007504
PD1733   PD        0.825940    0.640681    0.402254     0.005394
PD1734   PD        0.858561    0.603098    0.400639     0.005394
AU1735   AU        0.857983    0.643371    0.369620     0.007504
PD1736   PD        0.114502    0.674913    0.371020     0.005394
PD1737   PD        0.074935    0.748344    0.403832     0.005394
PD1738   PD        0.147828    0.675933    0.402725     0.005394
PD1739   PD        0.147562    0.709913    0.369347     0.005394
AU1740   AU        0.184498    0.674268    0.370209     0.007504
PD1741   PD        0.182090    0.712847    0.402925     0.005394
AU1742   AU        0.217719    0.676520    0.402123     0.007504
AU1743   AU        0.219117    0.712400    0.370560     0.007504
AU1744   AU        0.253650    0.675494    0.368887     0.007504
AU1745   AU        0.253843    0.712831    0.402893     0.007504
AU1746   AU        0.290935    0.677745    0.402780     0.007504
PD1747   PD        0.288950    0.714041    0.370877     0.005394
PD1748   PD        0.323719    0.678473    0.369389     0.005394
AU1749   AU        0.324433    0.714129    0.402476     0.007504
AU1750   AU        0.361134    0.675942    0.402240     0.007504
AU1751   AU        0.359410    0.711300    0.370659     0.007504
PD1752   PD        0.394578    0.674920    0.369877     0.005394
AU1753   AU        0.394812    0.712492    0.401244     0.007504
AU1754   AU        0.430570    0.676532    0.404516     0.007504
AU1755   AU        0.431392    0.712124    0.371133     0.007504
AU1756   AU        0.466337    0.675334    0.370965     0.007504
AU1757   AU        0.466781    0.711146    0.404288     0.007504
AU1758   AU        0.501738    0.674850    0.404606     0.007504
AU1759   AU        0.501915    0.711532    0.369208     0.007504
PD1760   PD        0.536007    0.677477    0.371717     0.005394
PD1761   PD        0.534616    0.711962    0.403381     0.005394
PD1762   PD        0.571450    0.678734    0.403873     0.005394
AU1763   AU        0.574774    0.711139    0.369386     0.007504
PD1764   PD        0.608423    0.679607    0.370392     0.005394
AU1765   AU        0.609141    0.712349    0.402707     0.007504
AU1766   AU        0.643753    0.677111    0.402055     0.007504
PD1767   PD        0.648074    0.711940    0.369524     0.005394
AU1768   AU        0.682855    0.674309    0.370366     0.007504
PD1769   PD        0.682603    0.711917    0.403244     0.005394
PD1770   PD        0.715870    0.677680    0.403870     0.005394
AU1771   AU        0.717064    0.710925    0.370284     0.007504
PD1772   PD        0.754146    0.674544    0.370087     0.005394
AU1773   AU        0.752288    0.714522    0.402759     0.007504
PD1774   PD        0.789128    0.675586    0.402702     0.005394
PD1775   PD        0.785242    0.712100    0.370306     0.005394
PD1776   PD        0.822572    0.676102    0.368442     0.005394
PD1777   PD        0.856785    0.681438    0.335619     0.005394
AU1778   AU        0.148462    0.749605    0.401052     0.007504
PD1779   PD        0.186591    0.746050    0.369427     0.005394
AU1780   AU        0.186157    0.781158    0.403829     0.007504
PD1781   PD        0.216501    0.746914    0.404431     0.005394
AU1782   AU        0.218863    0.783581    0.370157     0.007504
PD1783   PD        0.253223    0.748431    0.369399     0.005394
PD1784   PD        0.255328    0.780111    0.404330     0.005394
PD1785   PD        0.289069    0.746445    0.403739     0.005394
AU1786   AU        0.289550    0.779490    0.370508     0.007504
AU1787   AU        0.326319    0.747160    0.370692     0.007504
AU1788   AU        0.325448    0.782170    0.403297     0.007504
AU1789   AU        0.361118    0.747518    0.402676     0.007504
PD1790   PD        0.359971    0.783426    0.368097     0.005394
AU1791   AU        0.393961    0.747516    0.370917     0.007504
AU1792   AU        0.395561    0.782140    0.403500     0.007504
AU1793   AU        0.431420    0.747181    0.402426     0.007504
AU1794   AU        0.430711    0.782667    0.371417     0.007504
AU1795   AU        0.466980    0.747342    0.369817     0.007504
PD1796   PD        0.466014    0.782281    0.402644     0.005394
PD1797   PD        0.500026    0.747593    0.406118     0.005394
AU1798   AU        0.501696    0.781775    0.372709     0.007504
AU1799   AU        0.538044    0.746671    0.369854     0.007504
AU1800   AU        0.536767    0.783651    0.403429     0.007504
PD1801   PD        0.574339    0.748302    0.403657     0.005394
AU1802   AU        0.572629    0.783177    0.367712     0.007504
AU1803   AU        0.607380    0.747245    0.369927     0.007504
PD1804   PD        0.610259    0.785160    0.404047     0.005394
AU1805   AU        0.644096    0.746934    0.400349     0.007504
AU1806   AU        0.643499    0.782834    0.370002     0.007504
PD1807   PD        0.680433    0.747502    0.368987     0.005394
AU1808   AU        0.681171    0.784390    0.400060     0.007504
PD1809   PD        0.715954    0.748174    0.399195     0.005394
AU1810   AU        0.713893    0.816352    0.331854     0.007504
AU1811   AU        0.753996    0.747154    0.369669     0.007504
PD1812   PD        0.755361    0.782895    0.405056     0.005394
PD1813   PD        0.787578    0.747340    0.407115     0.005394
PD1814   PD        0.187771    0.824811    0.370884     0.005394
AU1815   AU        0.254556    0.818099    0.370997     0.007504
AU1816   AU        0.290336    0.815305    0.402494     0.007504
AU1817   AU        0.289595    0.855024    0.371733     0.007504
AU1818   AU        0.324224    0.819497    0.367695     0.007504
PD1819   PD        0.323199    0.852917    0.404922     0.005394
AU1820   AU        0.358687    0.817349    0.402222     0.007504
AU1821   AU        0.359391    0.853092    0.370274     0.007504
AU1822   AU        0.395258    0.818360    0.370188     0.007504
PD1823   PD        0.395006    0.854016    0.402310     0.005394
PD1824   PD        0.431480    0.820779    0.402155     0.005394
AU1825   AU        0.430766    0.854598    0.368543     0.007504
AU1826   AU        0.466918    0.816698    0.370532     0.007504
AU1827   AU        0.465368    0.853830    0.402492     0.007504
AU1828   AU        0.502750    0.820653    0.402014     0.007504
AU1829   AU        0.501981    0.853483    0.369054     0.007504
AU1830   AU        0.539486    0.817272    0.372033     0.007504
PD1831   PD        0.541386    0.855971    0.403142     0.005394
AU1832   AU        0.576197    0.818000    0.402175     0.007504
AU1833   AU        0.574998    0.851920    0.369159     0.007504
PD1834   PD        0.606996    0.817013    0.370092     0.005394
PD1835   PD        0.607357    0.856416    0.402322     0.005394
PD1836   PD        0.644049    0.821566    0.401828     0.005394
PD1837   PD        0.643240    0.856469    0.369181     0.005394
PD1838   PD        0.683240    0.819536    0.368981     0.005394
PD1839   PD        0.719881    0.818462    0.399430     0.005394
AU1840   AU        0.429450    0.889260    0.403118     0.007504
PD1841   PD        0.466821    0.887488    0.372901     0.005394
PD1842   PD        0.503795    0.891636    0.406856     0.005394
AU1843   AU        0.292557    0.070293    0.438469     0.007504
PD1844   PD        0.325262    0.070285    0.468951     0.005394
AU1845   AU        0.359750    0.074048    0.437727     0.007504
PD1846   PD        0.389080    0.035707    0.431120     0.005394
AU1847   AU        0.394500    0.071507    0.469766     0.007504
PD1848   PD        0.394528    0.000714    0.466500     0.005394
AU1849   AU        0.432204    0.073424    0.440031     0.007504
PD1850   PD        0.467944    0.035364    0.439160     0.005394
AU1851   AU        0.465756    0.072067    0.472047     0.007504
PD1852   PD        0.502157    0.038438    0.472196     0.005394
AU1853   AU        0.499710    0.071788    0.436669     0.007504
AU1854   AU        0.533176    0.036782    0.436931     0.007504
PD1855   PD        0.537009    0.071269    0.468826     0.005394
AU1856   AU        0.571395    0.069272    0.437133     0.007504
AU1857   AU        0.607809    0.073873    0.470628     0.007504
PD1858   PD        0.643398    0.073619    0.436569     0.005394
PD1859   PD        0.185510    0.108351    0.437330     0.005394
PD1860   PD        0.218066    0.106079    0.469971     0.005394
AU1861   AU        0.219764    0.143122    0.437222     0.007504
AU1862   AU        0.253120    0.106815    0.438336     0.007504
AU1863   AU        0.253726    0.144032    0.471419     0.007504
AU1864   AU        0.287526    0.108804    0.469171     0.007504
PD1865   PD        0.287499    0.144047    0.439025     0.005394
AU1866   AU        0.323568    0.109742    0.438257     0.007504
PD1867   PD        0.323629    0.142534    0.471085     0.005394
AU1868   AU        0.359061    0.108870    0.470984     0.007504
PD1869   PD        0.359350    0.142895    0.437953     0.005394
AU1870   AU        0.394770    0.107869    0.437563     0.007504
AU1871   AU        0.396518    0.140624    0.469713     0.007504
PD1872   PD        0.430780    0.109414    0.472507     0.005394
AU1873   AU        0.430131    0.141846    0.435640     0.007504
AU1874   AU        0.465436    0.107210    0.437132     0.007504
AU1875   AU        0.468413    0.142373    0.469901     0.007504
PD1876   PD        0.502370    0.104841    0.471832     0.005394
PD1877   PD        0.502254    0.141365    0.439786     0.005394
AU1878   AU        0.537232    0.106743    0.437767     0.007504
AU1879   AU        0.537292    0.141539    0.470680     0.007504
AU1880   AU        0.571379    0.107664    0.468933     0.007504
AU1881   AU        0.572516    0.143152    0.436954     0.007504
AU1882   AU        0.605403    0.105830    0.436673     0.007504
AU1883   AU        0.608253    0.140508    0.469585     0.007504
PD1884   PD        0.645080    0.105497    0.467696     0.005394
AU1885   AU        0.645384    0.141293    0.438016     0.007504
AU1886   AU        0.679353    0.104042    0.434749     0.007504
AU1887   AU        0.679749    0.141657    0.470810     0.007504
PD1888   PD        0.716620    0.104951    0.467271     0.005394
PD1889   PD        0.715261    0.142444    0.435705     0.005394
PD1890   PD        0.752452    0.140573    0.468253     0.005394
PD1891   PD        0.070634    0.184675    0.399761     0.005394
PD1892   PD        0.145420    0.177676    0.472174     0.005394
AU1893   AU        0.146795    0.212863    0.438415     0.007504
AU1894   AU        0.181814    0.177348    0.436582     0.007504
AU1895   AU        0.182443    0.212302    0.471165     0.007504
AU1896   AU        0.217270    0.177564    0.471677     0.007504
PD1897   PD        0.216113    0.215444    0.436617     0.005394
AU1898   AU        0.251535    0.177807    0.437582     0.007504
AU1899   AU        0.253736    0.213926    0.469946     0.007504
AU1900   AU        0.288467    0.177191    0.468653     0.007504
AU1901   AU        0.288743    0.214885    0.436194     0.007504
AU1902   AU        0.321980    0.177703    0.436689     0.007504
PD1903   PD        0.322579    0.216396    0.469519     0.005394
AU1904   AU        0.358252    0.177087    0.471106     0.007504
AU1905   AU        0.358744    0.211459    0.436515     0.007504
AU1906   AU        0.394135    0.179099    0.437366     0.007504
PD1907   PD        0.394430    0.213436    0.467871     0.005394
AU1908   AU        0.430906    0.175303    0.469147     0.007504
PD1909   PD        0.431222    0.214403    0.437793     0.005394
AU1910   AU        0.465276    0.179392    0.438185     0.007504
AU1911   AU        0.466383    0.211840    0.470296     0.007504
AU1912   AU        0.500825    0.178286    0.470945     0.007504
PD1913   PD        0.501945    0.213563    0.436890     0.005394
PD1914   PD        0.536990    0.177312    0.435890     0.005394
AU1915   AU        0.537945    0.212909    0.468781     0.007504
AU1916   AU        0.574244    0.177101    0.469755     0.007504
PD1917   PD        0.573915    0.212079    0.435165     0.005394
AU1918   AU        0.610842    0.177738    0.437412     0.007504
PD1919   PD        0.611070    0.212276    0.469335     0.005394
PD1920   PD        0.643993    0.176962    0.470206     0.005394
AU1921   AU        0.644886    0.211755    0.436499     0.007504
AU1922   AU        0.680529    0.175728    0.438810     0.007504
AU1923   AU        0.678619    0.213507    0.469198     0.007504
AU1924   AU        0.713899    0.177436    0.469315     0.007504
AU1925   AU        0.715361    0.211707    0.436596     0.007504
AU1926   AU        0.751079    0.176750    0.436405     0.007504
AU1927   AU        0.748953    0.212797    0.468858     0.007504
PD1928   PD        0.858585    0.147767    0.444558     0.005394
PD1929   PD        0.785345    0.210245    0.435617     0.005394
PD1930   PD        0.822556    0.208570    0.469352     0.005394
AU1931   AU        0.074887    0.286438    0.438237     0.007504
PD1932   PD        0.111056    0.251900    0.437637     0.005394
AU1933   AU        0.110922    0.285642    0.470564     0.007504
AU1934   AU        0.147034    0.250287    0.469686     0.007504
PD1935   PD        0.146710    0.285972    0.435897     0.005394
PD1936   PD        0.184118    0.248775    0.437912     0.005394
PD1937   PD        0.181306    0.284472    0.470225     0.005394
AU1938   AU        0.215770    0.250091    0.470623     0.007504
AU1939   AU        0.218785    0.282620    0.438027     0.007504
PD1940   PD        0.253577    0.249377    0.439287     0.005394
AU1941   AU        0.252262    0.283944    0.470165     0.007504
AU1942   AU        0.287892    0.249365    0.471644     0.007504
AU1943   AU        0.288095    0.284990    0.436608     0.007504
PD1944   PD        0.324369    0.250320    0.436679     0.005394
AU1945   AU        0.324850    0.282456    0.468775     0.007504
AU1946   AU        0.360188    0.248838    0.470130     0.007504
AU1947   AU        0.359785    0.283061    0.437285     0.007504
AU1948   AU        0.396520    0.250820    0.437803     0.007504
PD1949   PD        0.397038    0.284789    0.470916     0.005394
PD1950   PD        0.431311    0.251798    0.469913     0.005394
AU1951   AU        0.431560    0.284352    0.437880     0.007504
AU1952   AU        0.466566    0.247262    0.437785     0.007504
AU1953   AU        0.466305    0.286518    0.467693     0.007504
AU1954   AU        0.501747    0.250466    0.470179     0.007504
AU1955   AU        0.500421    0.284533    0.436493     0.007504
AU1956   AU        0.536930    0.250056    0.437935     0.007504
PD1957   PD        0.538834    0.285771    0.467763     0.005394
PD1958   PD        0.573572    0.247118    0.470769     0.005394
PD1959   PD        0.574442    0.283163    0.436724     0.005394
PD1960   PD        0.609145    0.249586    0.437931     0.005394
PD1961   PD        0.607901    0.284816    0.468599     0.005394
PD1962   PD        0.645336    0.250589    0.469880     0.005394
AU1963   AU        0.644420    0.284184    0.435452     0.007504
PD1964   PD        0.679314    0.245397    0.435380     0.005394
AU1965   AU        0.679882    0.285491    0.469999     0.007504
PD1966   PD        0.714125    0.247685    0.467488     0.005394
AU1967   AU        0.715804    0.284221    0.436421     0.007504
PD1968   PD        0.748621    0.247010    0.437130     0.005394
PD1969   PD        0.752032    0.285568    0.470793     0.005394
AU1970   AU        0.783331    0.248582    0.468182     0.007504
PD1971   PD        0.785687    0.284295    0.436556     0.005394
PD1972   PD        0.819612    0.249084    0.434208     0.005394
PD1973   PD        0.824085    0.285341    0.470681     0.005394
PD1974   PD        0.864108    0.293017    0.442034     0.005394
AU1975   AU        0.075335    0.321558    0.470023     0.007504
AU1976   AU        0.075770    0.356059    0.438755     0.007504
AU1977   AU        0.110292    0.320819    0.438036     0.007504
AU1978   AU        0.110577    0.355969    0.471148     0.007504
AU1979   AU        0.147362    0.321384    0.470186     0.007504
PD1980   PD        0.148099    0.354039    0.435810     0.005394
AU1981   AU        0.182555    0.318584    0.435792     0.007504
PD1982   PD        0.184364    0.356259    0.468961     0.005394
PD1983   PD        0.217370    0.317811    0.469834     0.005394
AU1984   AU        0.218085    0.356105    0.435362     0.007504
PD1985   PD        0.255274    0.320732    0.435897     0.005394
AU1986   AU        0.255254    0.354151    0.468966     0.007504
AU1987   AU        0.289153    0.319566    0.469679     0.007504
PD1988   PD        0.287689    0.354056    0.436609     0.005394
AU1989   AU        0.323952    0.321173    0.436730     0.007504
AU1990   AU        0.323670    0.355777    0.469200     0.007504
AU1991   AU        0.357772    0.319509    0.472144     0.007504
AU1992   AU        0.358685    0.355309    0.436683     0.007504
AU1993   AU        0.393928    0.319304    0.437488     0.007504
AU1994   AU        0.395884    0.355849    0.470595     0.007504
AU1995   AU        0.431238    0.320913    0.470418     0.007504
AU1996   AU        0.430188    0.355777    0.437878     0.007504
PD1997   PD        0.463257    0.320393    0.435863     0.005394
AU1998   AU        0.467554    0.354492    0.470550     0.007504
AU1999   AU        0.502839    0.319675    0.469922     0.007504
AU2000   AU        0.501738    0.357058    0.436624     0.007504
AU2001   AU        0.535481    0.318915    0.435806     0.007504
AU2002   AU        0.537260    0.353905    0.468738     0.007504
PD2003   PD        0.572123    0.320967    0.470702     0.005394
AU2004   AU        0.572883    0.352603    0.436066     0.007504
PD2005   PD        0.610525    0.319605    0.436138     0.005394
AU2006   AU        0.608009    0.355714    0.470223     0.007504
AU2007   AU        0.644076    0.319912    0.467432     0.007504
AU2008   AU        0.644482    0.356915    0.436033     0.007504
AU2009   AU        0.680585    0.319335    0.436202     0.007504
AU2010   AU        0.679356    0.355700    0.469613     0.007504
PD2011   PD        0.716558    0.320164    0.472504     0.005394
AU2012   AU        0.714353    0.356333    0.435607     0.007504
AU2013   AU        0.748461    0.320228    0.436692     0.007504
PD2014   PD        0.751279    0.355856    0.468910     0.005394
AU2015   AU        0.789062    0.320755    0.470549     0.007504
PD2016   PD        0.788477    0.355023    0.439490     0.005394
PD2017   PD        0.820557    0.319560    0.436159     0.005394
PD2018   PD        0.824305    0.355811    0.472384     0.005394
PD2019   PD        0.861646    0.321873    0.479588     0.005394
PD2020   PD        0.862053    0.356495    0.434626     0.005394
PD2021   PD        0.040511    0.388262    0.436165     0.005394
PD2022   PD        0.002979    0.428447    0.498991     0.005394
PD2023   PD        0.075481    0.390897    0.474124     0.005394
AU2024   AU        0.074148    0.427362    0.437417     0.007504
PD2025   PD        0.112464    0.390796    0.437949     0.005394
PD2026   PD        0.109892    0.427702    0.466414     0.005394
PD2027   PD        0.147405    0.392969    0.468666     0.005394
PD2028   PD        0.147589    0.427612    0.437135     0.005394
AU2029   AU        0.184296    0.393378    0.437049     0.007504
PD2030   PD        0.184134    0.428333    0.471433     0.005394
AU2031   AU        0.218967    0.392214    0.468984     0.007504
PD2032   PD        0.216396    0.429548    0.436407     0.005394
AU2033   AU        0.253303    0.392389    0.436259     0.007504
AU2034   AU        0.254286    0.428865    0.469452     0.007504
PD2035   PD        0.286053    0.389242    0.470597     0.005394
AU2036   AU        0.288975    0.427750    0.437778     0.007504
AU2037   AU        0.322166    0.390854    0.435250     0.007504
PD2038   PD        0.321284    0.426006    0.468281     0.005394
PD2039   PD        0.357044    0.390266    0.469867     0.005394
AU2040   AU        0.359557    0.426146    0.436832     0.007504
PD2041   PD        0.393007    0.391145    0.436139     0.005394
AU2042   AU        0.394497    0.428168    0.471069     0.007504
PD2043   PD        0.430394    0.390856    0.470728     0.005394
PD2044   PD        0.428981    0.427116    0.436294     0.005394
PD2045   PD        0.467991    0.392928    0.437921     0.005394
AU2046   AU        0.466117    0.426867    0.469533     0.007504
PD2047   PD        0.502302    0.390945    0.469856     0.005394
AU2048   AU        0.503339    0.428856    0.437085     0.007504
PD2049   PD        0.537207    0.390309    0.437391     0.005394
AU2050   AU        0.537411    0.425377    0.469550     0.007504
AU2051   AU        0.572984    0.390903    0.469145     0.007504
AU2052   AU        0.573616    0.425138    0.438214     0.007504
AU2053   AU        0.609771    0.389431    0.435877     0.007504
AU2054   AU        0.610328    0.426784    0.468961     0.007504
AU2055   AU        0.644966    0.390628    0.471525     0.007504
PD2056   PD        0.644585    0.426383    0.437796     0.005394
AU2057   AU        0.677578    0.392276    0.438216     0.007504
AU2058   AU        0.681151    0.426714    0.471401     0.007504
PD2059   PD        0.716960    0.391233    0.467651     0.005394
AU2060   AU        0.717555    0.426688    0.437739     0.007504
PD2061   PD        0.755569    0.390574    0.434556     0.005394
AU2062   AU        0.752890    0.426254    0.470199     0.007504
AU2063   AU        0.788878    0.390544    0.469090     0.007504
AU2064   AU        0.790235    0.426330    0.437527     0.007504
AU2065   AU        0.825744    0.388491    0.437461     0.007504
PD2066   PD        0.824050    0.426747    0.472877     0.005394
AU2067   AU        0.860235    0.391742    0.472063     0.007504
PD2068   PD        0.857748    0.424748    0.440116     0.005394
PD2069   PD        0.890995    0.390924    0.436032     0.005394
AU2070   AU        0.893484    0.426132    0.471298     0.007504
AU2071   AU        0.040722    0.463091    0.439615     0.007504
PD2072   PD        0.042863    0.499785    0.470919     0.005394
AU2073   AU        0.076992    0.462656    0.469375     0.007504
AU2074   AU        0.075006    0.497213    0.438075     0.007504
PD2075   PD        0.109969    0.463369    0.436283     0.005394
AU2076   AU        0.111119    0.497539    0.469849     0.007504
AU2077   AU        0.146254    0.461457    0.471694     0.007504
AU2078   AU        0.147833    0.499959    0.437312     0.007504
PD2079   PD        0.182128    0.464019    0.436778     0.005394
PD2080   PD        0.181965    0.499086    0.469828     0.005394
AU2081   AU        0.218797    0.464312    0.471373     0.007504
AU2082   AU        0.216123    0.499406    0.436123     0.007504
AU2083   AU        0.252845    0.462195    0.434425     0.007504
AU2084   AU        0.252749    0.499356    0.470139     0.007504
AU2085   AU        0.289750    0.464906    0.470731     0.007504
AU2086   AU        0.287968    0.498514    0.437889     0.007504
AU2087   AU        0.324848    0.460905    0.435886     0.007504
AU2088   AU        0.324570    0.497979    0.469160     0.007504
AU2089   AU        0.359038    0.461290    0.469751     0.007504
PD2090   PD        0.357627    0.497546    0.436364     0.005394
AU2091   AU        0.392753    0.462552    0.435864     0.007504
AU2092   AU        0.392379    0.497672    0.469451     0.007504
PD2093   PD        0.431523    0.460595    0.469638     0.005394
AU2094   AU        0.430228    0.495937    0.435315     0.007504
AU2095   AU        0.466421    0.463412    0.434905     0.007504
PD2096   PD        0.466911    0.497982    0.470278     0.005394
AU2097   AU        0.502767    0.461726    0.469910     0.007504
AU2098   AU        0.501003    0.499278    0.436026     0.007504
AU2099   AU        0.536267    0.463143    0.438998     0.007504
AU2100   AU        0.535308    0.499532    0.469878     0.007504
PD2101   PD        0.571917    0.461483    0.468195     0.005394
AU2102   AU        0.572607    0.499764    0.435673     0.007504
AU2103   AU        0.609379    0.463258    0.436927     0.007504
PD2104   PD        0.608145    0.498133    0.467880     0.005394
AU2105   AU        0.644569    0.463125    0.468397     0.007504
PD2106   PD        0.645443    0.499798    0.438171     0.005394
AU2107   AU        0.680024    0.461467    0.436485     0.007504
PD2108   PD        0.683355    0.498955    0.468306     0.005394
AU2109   AU        0.716037    0.461998    0.468245     0.007504
PD2110   PD        0.714887    0.499177    0.436509     0.005394
PD2111   PD        0.751627    0.464163    0.438491     0.005394
AU2112   AU        0.753483    0.500562    0.468968     0.007504
PD2113   PD        0.787508    0.462763    0.471586     0.005394
PD2114   PD        0.786617    0.499532    0.437253     0.005394
PD2115   PD        0.821530    0.462067    0.439393     0.005394
AU2116   AU        0.823226    0.498574    0.469006     0.007504
PD2117   PD        0.858936    0.462834    0.469446     0.005394
AU2118   AU        0.859510    0.499173    0.438064     0.007504
AU2119   AU        0.893535    0.463131    0.437079     0.007504
PD2120   PD        0.894093    0.500219    0.469679     0.005394
PD2121   PD        0.038352    0.527702    0.432300     0.005394
PD2122   PD        0.075412    0.534098    0.468208     0.005394
AU2123   AU        0.079164    0.568057    0.436678     0.007504
PD2124   PD        0.111151    0.533979    0.437069     0.005394
AU2125   AU        0.113277    0.571761    0.470873     0.007504
AU2126   AU        0.145827    0.534843    0.471614     0.007504
AU2127   AU        0.145922    0.568787    0.435103     0.007504
PD2128   PD        0.181649    0.535565    0.437828     0.005394
AU2129   AU        0.182678    0.570747    0.469227     0.007504
AU2130   AU        0.218386    0.535081    0.470051     0.007504
PD2131   PD        0.218230    0.569531    0.435936     0.005394
PD2132   PD        0.252679    0.534029    0.434979     0.005394
PD2133   PD        0.251658    0.566829    0.467648     0.005394
AU2134   AU        0.288987    0.534465    0.470870     0.007504
AU2135   AU        0.289150    0.569331    0.439322     0.007504
AU2136   AU        0.321862    0.533083    0.436764     0.007504
AU2137   AU        0.322743    0.569438    0.472057     0.007504
PD2138   PD        0.357660    0.534454    0.472299     0.005394
AU2139   AU        0.357037    0.568380    0.438029     0.007504
AU2140   AU        0.393419    0.534546    0.436885     0.007504
AU2141   AU        0.394297    0.570462    0.470334     0.007504
PD2142   PD        0.431173    0.532036    0.470042     0.005394
PD2143   PD        0.431423    0.570967    0.434783     0.005394
AU2144   AU        0.465213    0.535280    0.436599     0.007504
PD2145   PD        0.466975    0.567498    0.469865     0.005394
AU2146   AU        0.503303    0.535943    0.469204     0.007504
AU2147   AU        0.500786    0.568795    0.436058     0.007504
AU2148   AU        0.539044    0.533722    0.435680     0.007504
AU2149   AU        0.537571    0.570905    0.467931     0.007504
PD2150   PD        0.572175    0.531879    0.471347     0.005394
PD2151   PD        0.572788    0.568148    0.435592     0.005394
PD2152   PD        0.608615    0.535390    0.436128     0.005394
PD2153   PD        0.608078    0.564326    0.469789     0.005394
PD2154   PD        0.644504    0.534417    0.468604     0.005394
PD2155   PD        0.645515    0.567680    0.435426     0.005394
PD2156   PD        0.682055    0.535511    0.435908     0.005394
AU2157   AU        0.681154    0.568967    0.469923     0.007504
PD2158   PD        0.718585    0.537277    0.469943     0.005394
PD2159   PD        0.715413    0.570152    0.438738     0.005394
AU2160   AU        0.750677    0.535056    0.437051     0.007504
AU2161   AU        0.751001    0.571079    0.467814     0.007504
AU2162   AU        0.785707    0.535835    0.470080     0.007504
AU2163   AU        0.786845    0.570194    0.435372     0.007504
PD2164   PD        0.819924    0.533058    0.437530     0.005394
AU2165   AU        0.821653    0.569853    0.469688     0.007504
AU2166   AU        0.857762    0.536183    0.469497     0.007504
AU2167   AU        0.856231    0.570911    0.437189     0.007504
PD2168   PD        0.892612    0.538475    0.437809     0.005394
PD2169   PD        0.079212    0.607980    0.470687     0.005394
PD2170   PD        0.081432    0.640482    0.437439     0.005394
AU2171   AU        0.113691    0.606072    0.436990     0.007504
PD2172   PD        0.113462    0.641857    0.468617     0.005394
AU2173   AU        0.148866    0.606102    0.470103     0.007504
PD2174   PD        0.146877    0.640413    0.435886     0.005394
PD2175   PD        0.183568    0.606054    0.436018     0.005394
AU2176   AU        0.183859    0.640516    0.468124     0.007504
AU2177   AU        0.218957    0.606816    0.467951     0.007504
AU2178   AU        0.217582    0.642121    0.435668     0.007504
AU2179   AU        0.254886    0.605922    0.435429     0.007504
AU2180   AU        0.254047    0.640113    0.469507     0.007504
AU2181   AU        0.287724    0.605702    0.470281     0.007504
AU2182   AU        0.288985    0.640232    0.435139     0.007504
AU2183   AU        0.324236    0.604204    0.436095     0.007504
AU2184   AU        0.322775    0.640902    0.469324     0.007504
AU2185   AU        0.357428    0.606196    0.470643     0.007504
AU2186   AU        0.360117    0.638651    0.437212     0.007504
PD2187   PD        0.396500    0.602873    0.439040     0.005394
AU2188   AU        0.394538    0.641183    0.471408     0.007504
PD2189   PD        0.432151    0.604857    0.470632     0.005394
PD2190   PD        0.431832    0.639345    0.436577     0.005394
AU2191   AU        0.467516    0.604975    0.436190     0.007504
AU2192   AU        0.466168    0.641181    0.470564     0.007504
AU2193   AU        0.501425    0.605300    0.468942     0.007504
AU2194   AU        0.502875    0.639967    0.438148     0.007504
AU2195   AU        0.536845    0.605705    0.436007     0.007504
PD2196   PD        0.537535    0.637573    0.471139     0.005394
AU2197   AU        0.573034    0.602578    0.468217     0.007504
AU2198   AU        0.572391    0.639527    0.437973     0.007504
AU2199   AU        0.609807    0.604600    0.437491     0.007504
PD2200   PD        0.609173    0.641232    0.468913     0.005394
PD2201   PD        0.644986    0.603313    0.469190     0.005394
AU2202   AU        0.644591    0.642607    0.436915     0.007504
PD2203   PD        0.679977    0.605730    0.437351     0.005394
PD2204   PD        0.681581    0.639170    0.467888     0.005394
PD2205   PD        0.716460    0.606621    0.471602     0.005394
AU2206   AU        0.717259    0.642004    0.435543     0.007504
AU2207   AU        0.752115    0.607122    0.438182     0.007504
AU2208   AU        0.752727    0.640277    0.470776     0.007504
AU2209   AU        0.787556    0.605216    0.470462     0.007504
PD2210   PD        0.788987    0.642479    0.433394     0.005394
AU2211   AU        0.822330    0.604580    0.434671     0.007504
AU2212   AU        0.819979    0.640204    0.468078     0.007504
PD2213   PD        0.854624    0.607398    0.467616     0.005394
PD2214   PD        0.857537    0.636814    0.439068     0.005394
AU2215   AU        0.113569    0.677012    0.434659     0.007504
PD2216   PD        0.115577    0.746986    0.437915     0.005394
AU2217   AU        0.149939    0.676158    0.468781     0.007504
PD2218   PD        0.148277    0.712569    0.433745     0.005394
PD2219   PD        0.182863    0.675983    0.434765     0.005394
PD2220   PD        0.184569    0.710490    0.470202     0.005394
AU2221   AU        0.219071    0.674930    0.469362     0.007504
AU2222   AU        0.217179    0.710954    0.434406     0.007504
AU2223   AU        0.254036    0.676358    0.436628     0.007504
PD2224   PD        0.256517    0.711723    0.470252     0.005394
AU2225   AU        0.290677    0.675196    0.468749     0.007504
AU2226   AU        0.289969    0.713117    0.435847     0.007504
PD2227   PD        0.324086    0.673188    0.436567     0.005394
PD2228   PD        0.323820    0.711006    0.471895     0.005394
AU2229   AU        0.359072    0.675989    0.469227     0.007504
PD2230   PD        0.362162    0.710750    0.434073     0.005394
AU2231   AU        0.395279    0.676279    0.437267     0.007504
AU2232   AU        0.394295    0.712022    0.470491     0.007504
AU2233   AU        0.428737    0.675793    0.468584     0.007504
AU2234   AU        0.431593    0.710591    0.437519     0.007504
AU2235   AU        0.466556    0.675627    0.437418     0.007504
AU2236   AU        0.464893    0.711211    0.470137     0.007504
PD2237   PD        0.503257    0.675657    0.471422     0.005394
AU2238   AU        0.501398    0.711989    0.437965     0.007504
PD2239   PD        0.535806    0.675222    0.437275     0.005394
AU2240   AU        0.538572    0.711363    0.471049     0.007504
AU2241   AU        0.571925    0.676659    0.468508     0.007504
PD2242   PD        0.574394    0.712814    0.435548     0.005394
AU2243   AU        0.608310    0.677288    0.435413     0.007504
PD2244   PD        0.608233    0.711586    0.470426     0.005394
PD2245   PD        0.644810    0.676583    0.470009     0.005394
AU2246   AU        0.647641    0.709480    0.434676     0.007504
PD2247   PD        0.680391    0.675321    0.435563     0.005394
AU2248   AU        0.681410    0.712102    0.467359     0.007504
AU2249   AU        0.717186    0.676570    0.469769     0.007504
AU2250   AU        0.717583    0.711736    0.436949     0.007504
AU2251   AU        0.753244    0.676027    0.436196     0.007504
AU2252   AU        0.751763    0.712748    0.470598     0.007504
AU2253   AU        0.787932    0.675702    0.470123     0.007504
AU2254   AU        0.784596    0.712829    0.437741     0.007504
PD2255   PD        0.905688    0.681631    0.423305     0.005394
PD2256   PD        0.820306    0.713808    0.470427     0.005394
AU2257   AU        0.149303    0.748581    0.470521     0.007504
PD2258   PD        0.183789    0.746056    0.437929     0.005394
PD2259   PD        0.184510    0.782912    0.469508     0.005394
AU2260   AU        0.220098    0.746218    0.468794     0.007504
PD2261   PD        0.215927    0.782582    0.436153     0.005394
PD2262   PD        0.254592    0.746039    0.437211     0.005394
PD2263   PD        0.255643    0.780186    0.468280     0.005394
AU2264   AU        0.291132    0.748023    0.466987     0.007504
PD2265   PD        0.292434    0.784828    0.436601     0.005394
AU2266   AU        0.326653    0.745324    0.437680     0.007504
PD2267   PD        0.326189    0.783029    0.467933     0.005394
PD2268   PD        0.358616    0.746874    0.470777     0.005394
PD2269   PD        0.362482    0.783089    0.435293     0.005394
PD2270   PD        0.393006    0.748402    0.436867     0.005394
PD2271   PD        0.396488    0.785120    0.470213     0.005394
AU2272   AU        0.430641    0.746285    0.467666     0.007504
PD2273   PD        0.430755    0.783474    0.434679     0.005394
PD2274   PD        0.465062    0.748749    0.436449     0.005394
AU2275   AU        0.467807    0.784185    0.472030     0.007504
AU2276   AU        0.502822    0.746522    0.469016     0.007504
PD2277   PD        0.500952    0.781720    0.438251     0.005394
PD2278   PD        0.540401    0.745134    0.436010     0.005394
AU2279   AU        0.536745    0.781892    0.469343     0.007504
PD2280   PD        0.574040    0.746593    0.469483     0.005394
AU2281   AU        0.575547    0.782342    0.437720     0.007504
AU2282   AU        0.611595    0.746709    0.436057     0.007504
AU2283   AU        0.610158    0.783386    0.469218     0.007504
AU2284   AU        0.646550    0.749209    0.467708     0.007504
AU2285   AU        0.645760    0.784523    0.434562     0.007504
AU2286   AU        0.681725    0.748809    0.433584     0.007504
PD2287   PD        0.682996    0.781891    0.467229     0.005394
AU2288   AU        0.717294    0.747032    0.470944     0.007504
PD2289   PD        0.715618    0.781885    0.433968     0.005394
PD2290   PD        0.750518    0.749183    0.436842     0.005394
PD2291   PD        0.749963    0.785039    0.469406     0.005394
AU2292   AU        0.784532    0.749055    0.468756     0.007504
PD2293   PD        0.212718    0.815545    0.467911     0.005394
PD2294   PD        0.253132    0.813842    0.436078     0.005394
AU2295   AU        0.289823    0.818646    0.469303     0.007504
AU2296   AU        0.288414    0.852442    0.435003     0.007504
PD2297   PD        0.328131    0.820931    0.436518     0.005394
AU2298   AU        0.326652    0.854950    0.466528     0.007504
PD2299   PD        0.361605    0.818211    0.469985     0.005394
AU2300   AU        0.361221    0.855388    0.433793     0.007504
AU2301   AU        0.395737    0.821022    0.433401     0.007504
PD2302   PD        0.395490    0.854771    0.468438     0.005394
PD2303   PD        0.427795    0.818121    0.466577     0.005394
PD2304   PD        0.430347    0.855944    0.433423     0.005394
AU2305   AU        0.465962    0.818886    0.434477     0.007504
PD2306   PD        0.469440    0.853764    0.468489     0.005394
AU2307   AU        0.502407    0.817795    0.469709     0.007504
PD2308   PD        0.503641    0.851940    0.435935     0.005394
AU2309   AU        0.542160    0.817579    0.434358     0.007504
AU2310   AU        0.538790    0.851564    0.469590     0.007504
PD2311   PD        0.576334    0.819115    0.468864     0.005394
PD2312   PD        0.574486    0.853658    0.436857     0.005394
AU2313   AU        0.608165    0.819321    0.433590     0.007504
AU2314   AU        0.609461    0.854462    0.468236     0.007504
AU2315   AU        0.645409    0.816780    0.469008     0.007504
PD2316   PD        0.643450    0.856516    0.436613     0.005394
PD2317   PD        0.678620    0.820257    0.431117     0.005394
PD2318   PD        0.715221    0.820668    0.467685     0.005394
PD2319   PD        0.362828    0.926202    0.434961     0.005394
AU2320   AU        0.431298    0.891049    0.466178     0.007504
AU2321   AU        0.468846    0.888234    0.437961     0.007504
PD2322   PD        0.503173    0.888806    0.469548     0.005394
PD2323   PD        0.491557    0.924311    0.372984     0.005394
PD2324   PD        0.289995    0.070544    0.501854     0.005394
PD2325   PD        0.327222    0.069624    0.537432     0.005394
PD2326   PD        0.361698    0.071731    0.503328     0.005394
AU2327   AU        0.395028    0.074007    0.536880     0.007504
AU2328   AU        0.428251    0.074248    0.502523     0.007504
AU2329   AU        0.463283    0.037964    0.504753     0.007504
PD2330   PD        0.465351    0.071151    0.536951     0.005394
PD2331   PD        0.502785    0.073028    0.503836     0.005394
PD2332   PD        0.538655    0.072384    0.537756     0.005394
PD2333   PD        0.576696    0.071620    0.504230     0.005394
PD2334   PD        0.610209    0.071749    0.534831     0.005394
PD2335   PD        0.647190    0.073133    0.501607     0.005394
AU2336   AU        0.218273    0.142918    0.504803     0.007504
AU2337   AU        0.252229    0.109148    0.500793     0.007504
PD2338   PD        0.254042    0.142970    0.533783     0.005394
AU2339   AU        0.286721    0.106176    0.536226     0.007504
PD2340   PD        0.289086    0.143848    0.503088     0.005394
AU2341   AU        0.323819    0.107908    0.502530     0.007504
PD2342   PD        0.322654    0.142783    0.535884     0.005394
AU2343   AU        0.357441    0.108006    0.537255     0.007504
PD2344   PD        0.359146    0.142977    0.502257     0.005394
PD2345   PD        0.393074    0.104937    0.503203     0.005394
AU2346   AU        0.396754    0.142222    0.536796     0.007504
PD2347   PD        0.430443    0.109157    0.537073     0.005394
PD2348   PD        0.431027    0.143578    0.503870     0.005394
AU2349   AU        0.467873    0.107445    0.504141     0.007504
AU2350   AU        0.465083    0.142449    0.537071     0.007504
PD2351   PD        0.498951    0.104018    0.538237     0.005394
AU2352   AU        0.501175    0.141744    0.504320     0.007504
AU2353   AU        0.535775    0.107194    0.503665     0.007504
PD2354   PD        0.537046    0.139968    0.536174     0.005394
AU2355   AU        0.574177    0.105344    0.537122     0.007504
AU2356   AU        0.571361    0.143213    0.503367     0.007504
AU2357   AU        0.610291    0.106288    0.504035     0.007504
PD2358   PD        0.612901    0.140907    0.535462     0.005394
PD2359   PD        0.675947    0.035488    0.569914     0.005394
PD2360   PD        0.643025    0.141180    0.500553     0.005394
AU2361   AU        0.681737    0.105888    0.501357     0.007504
PD2362   PD        0.680184    0.138861    0.533719     0.005394
AU2363   AU        0.718034    0.141742    0.500894     0.007504
AU2364   AU        0.146762    0.215918    0.501972     0.007504
AU2365   AU        0.180081    0.177910    0.505362     0.007504
PD2366   PD        0.181478    0.213526    0.536144     0.005394
AU2367   AU        0.218128    0.178514    0.536139     0.007504
AU2368   AU        0.220304    0.215183    0.504504     0.007504
AU2369   AU        0.252652    0.180103    0.503949     0.007504
AU2370   AU        0.253409    0.213575    0.537679     0.007504
AU2371   AU        0.286530    0.176851    0.535396     0.007504
PD2372   PD        0.288720    0.213521    0.502127     0.005394
PD2373   PD        0.325042    0.175998    0.504655     0.005394
AU2374   AU        0.323989    0.214330    0.535510     0.007504
PD2375   PD        0.359397    0.177923    0.540029     0.005394
PD2376   PD        0.359725    0.213939    0.503079     0.005394
PD2377   PD        0.392953    0.177160    0.503525     0.005394
AU2378   AU        0.393885    0.212958    0.537896     0.007504
PD2379   PD        0.430603    0.178241    0.536537     0.005394
AU2380   AU        0.428390    0.211443    0.501535     0.007504
AU2381   AU        0.464976    0.177156    0.503854     0.007504
PD2382   PD        0.466202    0.215043    0.535911     0.005394
AU2383   AU        0.502855    0.178308    0.535380     0.007504
AU2384   AU        0.502103    0.211936    0.502928     0.007504
PD2385   PD        0.537325    0.177017    0.501512     0.005394
AU2386   AU        0.537235    0.213404    0.535208     0.007504
PD2387   PD        0.573510    0.178045    0.535328     0.005394
PD2388   PD        0.572738    0.211088    0.503711     0.005394
PD2389   PD        0.609287    0.177922    0.501694     0.005394
PD2390   PD        0.611340    0.211740    0.536211     0.005394
AU2391   AU        0.647482    0.177452    0.534546     0.007504
AU2392   AU        0.645536    0.212711    0.502938     0.007504
AU2393   AU        0.681014    0.176939    0.501173     0.007504
PD2394   PD        0.683218    0.212667    0.535920     0.005394
AU2395   AU        0.718479    0.176553    0.534081     0.007504
AU2396   AU        0.716083    0.213466    0.503259     0.007504
AU2397   AU        0.750402    0.177056    0.499113     0.007504
AU2398   AU        0.750374    0.212121    0.536112     0.007504
PD2399   PD        0.788565    0.210355    0.504854     0.005394
PD2400   PD        0.073627    0.287564    0.502595     0.005394
PD2401   PD        0.111314    0.254578    0.503074     0.005394
AU2402   AU        0.111881    0.285715    0.536243     0.007504
PD2403   PD        0.149780    0.250927    0.534238     0.005394
PD2404   PD        0.148370    0.287354    0.502954     0.005394
AU2405   AU        0.182560    0.249271    0.501664     0.007504
PD2406   PD        0.183104    0.286209    0.537735     0.005394
PD2407   PD        0.216962    0.248375    0.536961     0.005394
AU2408   AU        0.217850    0.285786    0.504058     0.007504
PD2409   PD        0.253609    0.251198    0.502836     0.005394
PD2410   PD        0.252482    0.286374    0.537506     0.005394
AU2411   AU        0.286991    0.250537    0.536426     0.007504
AU2412   AU        0.289690    0.287135    0.503014     0.007504
PD2413   PD        0.322556    0.247903    0.504481     0.005394
PD2414   PD        0.326200    0.282928    0.536424     0.005394
AU2415   AU        0.361178    0.250155    0.535829     0.007504
PD2416   PD        0.359982    0.283727    0.502923     0.005394
PD2417   PD        0.396586    0.247100    0.501160     0.005394
AU2418   AU        0.397329    0.286297    0.536347     0.007504
AU2419   AU        0.428840    0.246552    0.535385     0.007504
AU2420   AU        0.432344    0.284741    0.502650     0.007504
AU2421   AU        0.466634    0.250172    0.501198     0.007504
PD2422   PD        0.466910    0.281921    0.535575     0.005394
PD2423   PD        0.503516    0.247081    0.534898     0.005394
PD2424   PD        0.504259    0.284171    0.502709     0.005394
PD2425   PD        0.534730    0.248166    0.501485     0.005394
AU2426   AU        0.537128    0.284870    0.536194     0.007504
PD2427   PD        0.573785    0.249521    0.537839     0.005394
AU2428   AU        0.572241    0.285764    0.503425     0.007504
PD2429   PD        0.607747    0.247239    0.502734     0.005394
PD2430   PD        0.609526    0.287417    0.536517     0.005394
PD2431   PD        0.645437    0.247606    0.535236     0.005394
PD2432   PD        0.646938    0.285049    0.503939     0.005394
PD2433   PD        0.677363    0.248209    0.501107     0.005394
PD2434   PD        0.680435    0.285828    0.534366     0.005394
PD2435   PD        0.716550    0.250946    0.534725     0.005394
PD2436   PD        0.715852    0.283690    0.501394     0.005394
PD2437   PD        0.751122    0.248488    0.501413     0.005394
AU2438   AU        0.751099    0.283361    0.537598     0.007504
AU2439   AU        0.786064    0.247211    0.536496     0.007504
PD2440   PD        0.788956    0.283730    0.501969     0.005394
PD2441   PD        0.824377    0.248325    0.501416     0.005394
PD2442   PD        0.824082    0.284723    0.537897     0.005394
PD2443   PD        0.855500    0.283972    0.504705     0.005394
PD2444   PD        0.038373    0.318406    0.567255     0.005394
AU2445   AU        0.077184    0.355069    0.504484     0.007504
AU2446   AU        0.113058    0.321497    0.504251     0.007504
AU2447   AU        0.113357    0.360418    0.536877     0.007504
PD2448   PD        0.147751    0.321136    0.537137     0.005394
PD2449   PD        0.148539    0.354208    0.503041     0.005394
PD2450   PD        0.180991    0.323661    0.504537     0.005394
AU2451   AU        0.181161    0.358038    0.535938     0.007504
PD2452   PD        0.215554    0.321052    0.536283     0.005394
AU2453   AU        0.217591    0.356386    0.501524     0.007504
AU2454   AU        0.251781    0.321590    0.503373     0.007504
AU2455   AU        0.250774    0.358790    0.534317     0.007504
PD2456   PD        0.287374    0.321215    0.537087     0.005394
PD2457   PD        0.290198    0.355178    0.503925     0.005394
PD2458   PD        0.324732    0.321048    0.504224     0.005394
PD2459   PD        0.323348    0.358554    0.537958     0.005394
AU2460   AU        0.359650    0.319303    0.536847     0.007504
AU2461   AU        0.357401    0.356385    0.503172     0.007504
AU2462   AU        0.395817    0.320724    0.502842     0.007504
AU2463   AU        0.393695    0.355956    0.537080     0.007504
AU2464   AU        0.431669    0.319578    0.535458     0.007504
AU2465   AU        0.429477    0.355572    0.505792     0.007504
PD2466   PD        0.467444    0.317872    0.502469     0.005394
AU2467   AU        0.466699    0.356417    0.536321     0.007504
AU2468   AU        0.501944    0.319992    0.536810     0.007504
AU2469   AU        0.502590    0.356028    0.502019     0.007504
AU2470   AU        0.538637    0.322467    0.503403     0.007504
PD2471   PD        0.536829    0.356691    0.535573     0.005394
PD2472   PD        0.575602    0.320326    0.537212     0.005394
AU2473   AU        0.574506    0.357296    0.502252     0.007504
AU2474   AU        0.610373    0.322026    0.502071     0.007504
PD2475   PD        0.608648    0.355977    0.536385     0.005394
PD2476   PD        0.643365    0.320515    0.535764     0.005394
PD2477   PD        0.643911    0.355354    0.502895     0.005394
PD2478   PD        0.677436    0.323385    0.504705     0.005394
PD2479   PD        0.676925    0.357592    0.536174     0.005394
PD2480   PD        0.714547    0.320718    0.537243     0.005394
PD2481   PD        0.717692    0.355426    0.503988     0.005394
PD2482   PD        0.750534    0.320073    0.504716     0.005394
PD2483   PD        0.750270    0.356690    0.534512     0.005394
PD2484   PD        0.785099    0.320540    0.536582     0.005394
PD2485   PD        0.785053    0.354453    0.504915     0.005394
AU2486   AU        0.822681    0.319774    0.504233     0.007504
PD2487   PD        0.825388    0.356400    0.537145     0.005394
AU2488   AU        0.859863    0.319005    0.534843     0.007504
PD2489   PD        0.860054    0.357793    0.504503     0.005394
AU2490   AU        0.076993    0.394282    0.537915     0.007504
AU2491   AU        0.078529    0.428207    0.502674     0.007504
PD2492   PD        0.110779    0.393205    0.503881     0.005394
AU2493   AU        0.113151    0.426520    0.538153     0.007504
PD2494   PD        0.146710    0.393068    0.536768     0.005394
AU2495   AU        0.147594    0.424273    0.502586     0.007504
PD2496   PD        0.183408    0.391189    0.502575     0.005394
AU2497   AU        0.183661    0.426982    0.536142     0.007504
PD2498   PD        0.216943    0.393130    0.535103     0.005394
AU2499   AU        0.217455    0.428334    0.502058     0.007504
AU2500   AU        0.252559    0.392183    0.503092     0.007504
AU2501   AU        0.251197    0.426836    0.536109     0.007504
PD2502   PD        0.287752    0.392569    0.536940     0.005394
AU2503   AU        0.287762    0.430070    0.504848     0.007504
AU2504   AU        0.321891    0.390881    0.502387     0.007504
AU2505   AU        0.322664    0.426374    0.536073     0.007504
AU2506   AU        0.357657    0.392032    0.535503     0.007504
AU2507   AU        0.360484    0.426307    0.503522     0.007504
AU2508   AU        0.393603    0.390999    0.503607     0.007504
PD2509   PD        0.393854    0.424260    0.536716     0.005394
AU2510   AU        0.430997    0.390400    0.537794     0.007504
AU2511   AU        0.430285    0.425822    0.505618     0.007504
AU2512   AU        0.466855    0.391783    0.503164     0.007504
PD2513   PD        0.467202    0.427628    0.538172     0.005394
AU2514   AU        0.501336    0.392135    0.538085     0.007504
PD2515   PD        0.503874    0.427229    0.503625     0.005394
AU2516   AU        0.535755    0.390483    0.500361     0.007504
PD2517   PD        0.537852    0.427808    0.537570     0.005394
AU2518   AU        0.571375    0.393004    0.536312     0.007504
AU2519   AU        0.570784    0.426669    0.502269     0.007504
AU2520   AU        0.607012    0.392273    0.502027     0.007504
PD2521   PD        0.608991    0.426601    0.536811     0.005394
AU2522   AU        0.644067    0.393502    0.534710     0.007504
PD2523   PD        0.645220    0.426042    0.500878     0.005394
PD2524   PD        0.679041    0.389419    0.503352     0.005394
AU2525   AU        0.681218    0.427386    0.533854     0.007504
AU2526   AU        0.716139    0.391638    0.534095     0.007504
PD2527   PD        0.718157    0.429801    0.503249     0.005394
AU2528   AU        0.753466    0.391436    0.503412     0.007504
AU2529   AU        0.752208    0.428876    0.536528     0.007504
PD2530   PD        0.787552    0.392179    0.536671     0.005394
AU2531   AU        0.787480    0.427446    0.503716     0.007504
AU2532   AU        0.821170    0.390327    0.504432     0.007504
AU2533   AU        0.822109    0.427237    0.537075     0.007504
PD2534   PD        0.857747    0.392952    0.535440     0.005394
AU2535   AU        0.857881    0.428317    0.503766     0.007504
PD2536   PD        0.038319    0.459877    0.500410     0.005394
AU2537   AU        0.075585    0.462340    0.536575     0.007504
PD2538   PD        0.079999    0.497171    0.503142     0.005394
AU2539   AU        0.113065    0.463739    0.504855     0.007504
AU2540   AU        0.114247    0.497015    0.536950     0.007504
AU2541   AU        0.147241    0.461336    0.536684     0.007504
AU2542   AU        0.147913    0.497723    0.503976     0.007504
PD2543   PD        0.183350    0.462659    0.503770     0.005394
AU2544   AU        0.182336    0.497487    0.537065     0.007504
AU2545   AU        0.217977    0.462804    0.535267     0.007504
AU2546   AU        0.215573    0.499821    0.504733     0.007504
AU2547   AU        0.252335    0.464470    0.503923     0.007504
AU2548   AU        0.253798    0.497950    0.536531     0.007504
AU2549   AU        0.287700    0.462984    0.537194     0.007504
AU2550   AU        0.288217    0.496601    0.502779     0.007504
AU2551   AU        0.324642    0.461576    0.502428     0.007504
AU2552   AU        0.323673    0.498041    0.535625     0.007504
PD2553   PD        0.358735    0.464909    0.536884     0.005394
AU2554   AU        0.360363    0.501121    0.503588     0.007504
PD2555   PD        0.392630    0.465568    0.504697     0.005394
PD2556   PD        0.395545    0.502676    0.536722     0.005394
AU2557   AU        0.428616    0.464931    0.538040     0.007504
PD2558   PD        0.429970    0.497343    0.501719     0.005394
AU2559   AU        0.466500    0.462832    0.502418     0.007504
PD2560   PD        0.462543    0.499141    0.537503     0.005394
AU2561   AU        0.503388    0.461881    0.535574     0.007504
PD2562   PD        0.500742    0.497982    0.503624     0.005394
AU2563   AU        0.537431    0.463771    0.502771     0.007504
PD2564   PD        0.536315    0.497747    0.535642     0.005394
PD2565   PD        0.573514    0.464069    0.538489     0.005394
PD2566   PD        0.573181    0.497260    0.502364     0.005394
AU2567   AU        0.606635    0.461198    0.503352     0.007504
AU2568   AU        0.608728    0.497322    0.538117     0.007504
PD2569   PD        0.644636    0.462287    0.534060     0.005394
PD2570   PD        0.644247    0.494433    0.499784     0.005394
PD2571   PD        0.683250    0.462206    0.502492     0.005394
AU2572   AU        0.680349    0.498213    0.535683     0.007504
AU2573   AU        0.717231    0.464102    0.536310     0.007504
AU2574   AU        0.715358    0.499356    0.502380     0.007504
AU2575   AU        0.752547    0.463817    0.502986     0.007504
AU2576   AU        0.752907    0.498706    0.535638     0.007504
AU2577   AU        0.786528    0.464369    0.535658     0.007504
AU2578   AU        0.788704    0.500719    0.502352     0.007504
AU2579   AU        0.821695    0.466063    0.505310     0.007504
PD2580   PD        0.824825    0.497726    0.536981     0.005394
AU2581   AU        0.858167    0.464000    0.535107     0.007504
PD2582   PD        0.860074    0.497733    0.499775     0.005394
AU2583   AU        0.894268    0.465363    0.502131     0.007504
PD2584   PD        0.000714    0.492900    0.503532     0.005394
AU2585   AU        0.077485    0.570906    0.501673     0.007504
PD2586   PD        0.111746    0.534899    0.504319     0.005394
PD2587   PD        0.113640    0.570558    0.537669     0.005394
AU2588   AU        0.148500    0.533347    0.536617     0.007504
AU2589   AU        0.146482    0.569000    0.504110     0.007504
AU2590   AU        0.181071    0.535426    0.502650     0.007504
AU2591   AU        0.183249    0.569412    0.536724     0.007504
AU2592   AU        0.219015    0.534761    0.536626     0.007504
AU2593   AU        0.216603    0.569068    0.502818     0.007504
AU2594   AU        0.253601    0.532401    0.502606     0.007504
AU2595   AU        0.253182    0.570391    0.535330     0.007504
AU2596   AU        0.287972    0.534103    0.536558     0.007504
AU2597   AU        0.288599    0.571180    0.504063     0.007504
AU2598   AU        0.324238    0.533524    0.504398     0.007504
PD2599   PD        0.323520    0.569356    0.535169     0.005394
AU2600   AU        0.358256    0.535108    0.535695     0.007504
AU2601   AU        0.359863    0.569485    0.503267     0.007504
AU2602   AU        0.394529    0.534519    0.502826     0.007504
AU2603   AU        0.395847    0.570227    0.536973     0.007504
PD2604   PD        0.430187    0.536970    0.535183     0.005394
PD2605   PD        0.431819    0.571974    0.502729     0.005394
PD2606   PD        0.464229    0.536843    0.503351     0.005394
AU2607   AU        0.466309    0.572516    0.536186     0.007504
AU2608   AU        0.501251    0.532836    0.535023     0.007504
AU2609   AU        0.502397    0.570800    0.503452     0.007504
AU2610   AU        0.536416    0.534359    0.503384     0.007504
AU2611   AU        0.537254    0.569244    0.536131     0.007504
AU2612   AU        0.573338    0.533211    0.534892     0.007504
AU2613   AU        0.572460    0.569321    0.502102     0.007504
PD2614   PD        0.608572    0.529319    0.502705     0.005394
AU2615   AU        0.607966    0.568615    0.537767     0.007504
AU2616   AU        0.641952    0.532297    0.537097     0.007504
PD2617   PD        0.643175    0.569199    0.502052     0.005394
PD2618   PD        0.682461    0.535092    0.503053     0.005394
PD2619   PD        0.683211    0.570713    0.536117     0.005394
AU2620   AU        0.718726    0.533431    0.536505     0.007504
AU2621   AU        0.718252    0.571429    0.501515     0.007504
AU2622   AU        0.751374    0.531999    0.502361     0.007504
PD2623   PD        0.751906    0.569283    0.536999     0.005394
PD2624   PD        0.784582    0.533380    0.536393     0.005394
AU2625   AU        0.787417    0.568120    0.504000     0.007504
AU2626   AU        0.823842    0.534814    0.503532     0.007504
AU2627   AU        0.820632    0.570095    0.536390     0.007504
AU2628   AU        0.859170    0.531650    0.533304     0.007504
PD2629   PD        0.859862    0.570817    0.502939     0.005394
PD2630   PD        0.075834    0.607961    0.535715     0.005394
PD2631   PD        0.076662    0.641759    0.503272     0.005394
AU2632   AU        0.112491    0.606996    0.504245     0.007504
PD2633   PD        0.112895    0.673375    0.572269     0.005394
AU2634   AU        0.147809    0.603664    0.534978     0.007504
PD2635   PD        0.147114    0.640765    0.502268     0.005394
AU2636   AU        0.182845    0.604843    0.502740     0.007504
AU2637   AU        0.182398    0.639568    0.537789     0.007504
AU2638   AU        0.218227    0.605186    0.534793     0.007504
AU2639   AU        0.215767    0.640714    0.502677     0.007504
AU2640   AU        0.252642    0.604225    0.500923     0.007504
AU2641   AU        0.252164    0.639333    0.535071     0.007504
PD2642   PD        0.288888    0.606615    0.536878     0.005394
AU2643   AU        0.289052    0.640882    0.502535     0.007504
AU2644   AU        0.323090    0.604540    0.502717     0.007504
AU2645   AU        0.323926    0.639855    0.535483     0.007504
AU2646   AU        0.360242    0.604794    0.535719     0.007504
AU2647   AU        0.359098    0.641492    0.502713     0.007504
AU2648   AU        0.393334    0.606028    0.503718     0.007504
AU2649   AU        0.395138    0.639872    0.535164     0.007504
AU2650   AU        0.429819    0.605876    0.537520     0.007504
AU2651   AU        0.429447    0.640189    0.502178     0.007504
AU2652   AU        0.465304    0.606098    0.503381     0.007504
AU2653   AU        0.464316    0.639976    0.535966     0.007504
AU2654   AU        0.501187    0.607000    0.534676     0.007504
AU2655   AU        0.501380    0.640533    0.502987     0.007504
PD2656   PD        0.538400    0.605614    0.501681     0.005394
AU2657   AU        0.536073    0.639385    0.535136     0.007504
PD2658   PD        0.574721    0.606528    0.533832     0.005394
PD2659   PD        0.573465    0.643656    0.503330     0.005394
PD2660   PD        0.608806    0.606454    0.503107     0.005394
PD2661   PD        0.608607    0.640556    0.534386     0.005394
PD2662   PD        0.645278    0.607544    0.536764     0.005394
PD2663   PD        0.645322    0.640096    0.500145     0.005394
PD2664   PD        0.680123    0.602852    0.503737     0.005394
PD2665   PD        0.681829    0.642509    0.536845     0.005394
PD2666   PD        0.717804    0.606848    0.535042     0.005394
PD2667   PD        0.715624    0.640484    0.502817     0.005394
AU2668   AU        0.754264    0.604003    0.503249     0.007504
PD2669   PD        0.752843    0.642288    0.534716     0.005394
PD2670   PD        0.784706    0.604162    0.535623     0.005394
AU2671   AU        0.787055    0.642454    0.501257     0.007504
AU2672   AU        0.820791    0.604115    0.503435     0.007504
AU2673   AU        0.822965    0.641507    0.535441     0.007504
PD2674   PD        0.854247    0.603115    0.535560     0.005394
AU2675   AU        0.857462    0.639746    0.502930     0.007504
PD2676   PD        0.114141    0.674717    0.500260     0.005394
AU2677   AU        0.148971    0.676918    0.537293     0.007504
AU2678   AU        0.148869    0.709738    0.502541     0.007504
AU2679   AU        0.184198    0.675319    0.503046     0.007504
PD2680   PD        0.182841    0.711503    0.533828     0.005394
AU2681   AU        0.217116    0.676607    0.536644     0.007504
AU2682   AU        0.219176    0.711537    0.500543     0.007504
AU2683   AU        0.253585    0.675183    0.503298     0.007504
PD2684   PD        0.254045    0.709255    0.535539     0.005394
PD2685   PD        0.287586    0.674868    0.537904     0.005394
PD2686   PD        0.286825    0.711852    0.505990     0.005394
AU2687   AU        0.322793    0.676293    0.504957     0.007504
AU2688   AU        0.325574    0.709122    0.536569     0.007504
AU2689   AU        0.360505    0.675985    0.537015     0.007504
AU2690   AU        0.360158    0.710160    0.503152     0.007504
AU2691   AU        0.394292    0.674871    0.503308     0.007504
AU2692   AU        0.395994    0.710978    0.537841     0.007504
PD2693   PD        0.430300    0.676713    0.535378     0.005394
PD2694   PD        0.429046    0.714256    0.502552     0.005394
AU2695   AU        0.465943    0.674860    0.502455     0.007504
PD2696   PD        0.464901    0.710859    0.534483     0.005394
AU2697   AU        0.501534    0.674087    0.536227     0.007504
AU2698   AU        0.501229    0.712050    0.504241     0.007504
PD2699   PD        0.536606    0.676751    0.504794     0.005394
AU2700   AU        0.535355    0.713010    0.535695     0.007504
PD2701   PD        0.574697    0.680776    0.534355     0.005394
PD2702   PD        0.574607    0.713597    0.503942     0.005394
AU2703   AU        0.609086    0.675881    0.503113     0.007504
PD2704   PD        0.610686    0.712393    0.535499     0.005394
AU2705   AU        0.644103    0.677392    0.534513     0.007504
PD2706   PD        0.645893    0.711947    0.499926     0.005394
AU2707   AU        0.681237    0.675443    0.502190     0.007504
PD2708   PD        0.682129    0.712698    0.534148     0.005394
AU2709   AU        0.717009    0.674436    0.535557     0.007504
PD2710   PD        0.716799    0.710182    0.502549     0.005394
PD2711   PD        0.752510    0.675821    0.500776     0.005394
PD2712   PD        0.747857    0.710498    0.538341     0.005394
AU2713   AU        0.785978    0.677960    0.533513     0.007504
AU2714   AU        0.786280    0.714844    0.504029     0.007504
PD2715   PD        0.821536    0.677757    0.502017     0.005394
AU2716   AU        0.181509    0.782224    0.533483     0.007504
PD2717   PD        0.217978    0.746826    0.537229     0.005394
PD2718   PD        0.218112    0.779130    0.502227     0.005394
AU2719   AU        0.252686    0.747568    0.504239     0.007504
PD2720   PD        0.253313    0.782939    0.538160     0.005394
PD2721   PD        0.288996    0.746277    0.536365     0.005394
AU2722   AU        0.288472    0.781494    0.501990     0.007504
AU2723   AU        0.323882    0.746219    0.505383     0.007504
AU2724   AU        0.322990    0.782729    0.535127     0.007504
PD2725   PD        0.357240    0.747204    0.536892     0.005394
AU2726   AU        0.359307    0.782603    0.501651     0.007504
PD2727   PD        0.393104    0.746881    0.503851     0.005394
AU2728   AU        0.394569    0.783238    0.536378     0.007504
AU2729   AU        0.429628    0.747679    0.536165     0.007504
PD2730   PD        0.430879    0.782933    0.502707     0.005394
PD2731   PD        0.468383    0.749791    0.503275     0.005394
PD2732   PD        0.467067    0.784817    0.535180     0.005394
PD2733   PD        0.503534    0.748465    0.535007     0.005394
PD2734   PD        0.502449    0.783295    0.501923     0.005394
AU2735   AU        0.539073    0.746618    0.502631     0.007504
PD2736   PD        0.537590    0.781358    0.536123     0.005394
PD2737   PD        0.574286    0.747458    0.536630     0.005394
PD2738   PD        0.572278    0.784625    0.501320     0.005394
PD2739   PD        0.609711    0.748081    0.503802     0.005394
PD2740   PD        0.607345    0.783261    0.535820     0.005394
PD2741   PD        0.644160    0.745708    0.538359     0.005394
PD2742   PD        0.644239    0.784675    0.503787     0.005394
AU2743   AU        0.680137    0.746867    0.500330     0.007504
AU2744   AU        0.680167    0.782140    0.534563     0.007504
AU2745   AU        0.714830    0.746218    0.534483     0.007504
AU2746   AU        0.714487    0.784332    0.502618     0.007504
PD2747   PD        0.749868    0.747342    0.503389     0.005394
AU2748   AU        0.250058    0.817158    0.498982     0.007504
PD2749   PD        0.292943    0.819182    0.535874     0.005394
PD2750   PD        0.286453    0.853519    0.498561     0.005394
AU2751   AU        0.325476    0.819029    0.502313     0.007504
PD2752   PD        0.327103    0.856655    0.534193     0.005394
AU2753   AU        0.360050    0.819513    0.535564     0.007504
AU2754   AU        0.361696    0.852291    0.500998     0.007504
PD2755   PD        0.395669    0.816527    0.503373     0.005394
AU2756   AU        0.395188    0.853974    0.534585     0.007504
PD2757   PD        0.431086    0.817604    0.535230     0.005394
PD2758   PD        0.432264    0.853079    0.499699     0.005394
PD2759   PD        0.466829    0.818633    0.502683     0.005394
AU2760   AU        0.465365    0.854166    0.535066     0.007504
AU2761   AU        0.501690    0.817298    0.535418     0.007504
AU2762   AU        0.502286    0.851922    0.501920     0.007504
PD2763   PD        0.537505    0.818832    0.502244     0.005394
AU2764   AU        0.535625    0.854812    0.535346     0.007504
AU2765   AU        0.573829    0.818679    0.536929     0.007504
AU2766   AU        0.575030    0.851678    0.503560     0.007504
AU2767   AU        0.611362    0.818624    0.504062     0.007504
PD2768   PD        0.608708    0.852434    0.537992     0.005394
PD2769   PD        0.646696    0.817732    0.536209     0.005394
AU2770   AU        0.645405    0.852241    0.504211     0.007504
PD2771   PD        0.681732    0.819020    0.504370     0.005394
AU2772   AU        0.468530    0.887343    0.500028     0.007504
PD2773   PD        0.360408    0.073101    0.570791     0.005394
PD2774   PD        0.426477    0.034859    0.606115     0.005394
AU2775   AU        0.428483    0.071795    0.568898     0.007504
PD2776   PD        0.465082    0.070887    0.605548     0.005394
AU2777   AU        0.498009    0.069103    0.570094     0.007504
AU2778   AU        0.537897    0.072222    0.601186     0.007504
PD2779   PD        0.643989    0.073034    0.640855     0.005394
PD2780   PD        0.217136    0.141448    0.566523     0.005394
AU2781   AU        0.254203    0.138456    0.601886     0.007504
PD2782   PD        0.291130    0.108866    0.601999     0.005394
AU2783   AU        0.288979    0.143388    0.567917     0.007504
AU2784   AU        0.323416    0.106717    0.568083     0.007504
AU2785   AU        0.325210    0.141889    0.602153     0.007504
PD2786   PD        0.357852    0.107869    0.602523     0.005394
AU2787   AU        0.361123    0.143119    0.569506     0.007504
AU2788   AU        0.394808    0.110486    0.569608     0.007504
PD2789   PD        0.394473    0.143010    0.605766     0.005394
AU2790   AU        0.431301    0.107557    0.602622     0.007504
AU2791   AU        0.429357    0.143159    0.569269     0.007504
AU2792   AU        0.466764    0.107212    0.571478     0.007504
AU2793   AU        0.466196    0.144355    0.602947     0.007504
AU2794   AU        0.502768    0.108756    0.602198     0.007504
AU2795   AU        0.501741    0.141565    0.569566     0.007504
AU2796   AU        0.534171    0.107321    0.568799     0.007504
AU2797   AU        0.536817    0.142502    0.602586     0.007504
AU2798   AU        0.570354    0.108455    0.602332     0.007504
AU2799   AU        0.572585    0.144910    0.570076     0.007504
PD2800   PD        0.606829    0.105899    0.568345     0.005394
PD2801   PD        0.609084    0.140455    0.603779     0.005394
PD2802   PD        0.642137    0.105106    0.604725     0.005394
PD2803   PD        0.644247    0.142913    0.569885     0.005394
PD2804   PD        0.676649    0.138922    0.600757     0.005394
PD2805   PD        0.712068    0.140748    0.568874     0.005394
PD2806   PD        0.146172    0.215190    0.569282     0.005394
PD2807   PD        0.178185    0.144326    0.601364     0.005394
PD2808   PD        0.104291    0.215193    0.604772     0.005394
PD2809   PD        0.220541    0.176701    0.601741     0.005394
PD2810   PD        0.217079    0.212062    0.568650     0.005394
AU2811   AU        0.254573    0.176854    0.569676     0.007504
AU2812   AU        0.255756    0.212824    0.601739     0.007504
AU2813   AU        0.288740    0.176976    0.602218     0.007504
AU2814   AU        0.290585    0.214745    0.570257     0.007504
AU2815   AU        0.324394    0.178085    0.569617     0.007504
PD2816   PD        0.325139    0.211782    0.601764     0.005394
AU2817   AU        0.360895    0.178211    0.602452     0.007504
PD2818   PD        0.360829    0.211699    0.570168     0.005394
AU2819   AU        0.396949    0.177998    0.571158     0.007504
PD2820   PD        0.394290    0.212144    0.603112     0.005394
AU2821   AU        0.430503    0.175620    0.602579     0.007504
PD2822   PD        0.430729    0.216171    0.570455     0.005394
AU2823   AU        0.464510    0.177868    0.568349     0.007504
AU2824   AU        0.465833    0.212703    0.605414     0.007504
PD2825   PD        0.498839    0.177890    0.601393     0.005394
AU2826   AU        0.501471    0.213637    0.570430     0.007504
PD2827   PD        0.535754    0.177496    0.568889     0.005394
PD2828   PD        0.537906    0.211737    0.604058     0.005394
PD2829   PD        0.573280    0.180075    0.603100     0.005394
PD2830   PD        0.572730    0.212528    0.570577     0.005394
PD2831   PD        0.609765    0.176844    0.568785     0.005394
PD2832   PD        0.609501    0.212731    0.601000     0.005394
AU2833   AU        0.644351    0.176618    0.601695     0.007504
PD2834   PD        0.645536    0.212318    0.569671     0.005394
AU2835   AU        0.682780    0.175712    0.567648     0.007504
PD2836   PD        0.679645    0.213991    0.603805     0.005394
PD2837   PD        0.710764    0.179150    0.601364     0.005394
AU2838   AU        0.715729    0.211911    0.568800     0.007504
PD2839   PD        0.748961    0.176486    0.575359     0.005394
PD2840   PD        0.751900    0.213685    0.602137     0.005394
AU2841   AU        0.784747    0.212702    0.569096     0.007504
PD2842   PD        0.109560    0.283498    0.599115     0.005394
PD2843   PD        0.079419    0.283934    0.645590     0.005394
AU2844   AU        0.147294    0.284620    0.570094     0.007504
AU2845   AU        0.184241    0.249163    0.569399     0.007504
AU2846   AU        0.183097    0.286348    0.601715     0.007504
PD2847   PD        0.219078    0.247033    0.602454     0.005394
PD2848   PD        0.218077    0.286275    0.568063     0.005394
PD2849   PD        0.254235    0.246861    0.571618     0.005394
AU2850   AU        0.254612    0.286101    0.602445     0.007504
PD2851   PD        0.291554    0.249666    0.604052     0.005394
PD2852   PD        0.289897    0.285481    0.569102     0.005394
AU2853   AU        0.324451    0.249743    0.568177     0.007504
PD2854   PD        0.326032    0.286707    0.603368     0.005394
AU2855   AU        0.358212    0.247406    0.601841     0.007504
AU2856   AU        0.361602    0.285668    0.569988     0.007504
AU2857   AU        0.394261    0.249836    0.568068     0.007504
PD2858   PD        0.395019    0.284175    0.605003     0.005394
PD2859   PD        0.430292    0.248013    0.604366     0.005394
AU2860   AU        0.431142    0.285033    0.569139     0.007504
AU2861   AU        0.467061    0.249902    0.569889     0.007504
AU2862   AU        0.464084    0.283443    0.603636     0.007504
PD2863   PD        0.504160    0.246060    0.604639     0.005394
AU2864   AU        0.500441    0.285056    0.570752     0.007504
AU2865   AU        0.536397    0.248392    0.568605     0.007504
AU2866   AU        0.538382    0.283029    0.601775     0.007504
AU2867   AU        0.572632    0.246314    0.603848     0.007504
AU2868   AU        0.572435    0.283770    0.570360     0.007504
AU2869   AU        0.610052    0.248578    0.570608     0.007504
PD2870   PD        0.611373    0.281453    0.603037     0.005394
PD2871   PD        0.647642    0.245420    0.603985     0.005394
AU2872   AU        0.644751    0.280233    0.570498     0.007504
PD2873   PD        0.680794    0.248887    0.565701     0.005394
PD2874   PD        0.681368    0.283030    0.604426     0.005394
AU2875   AU        0.714378    0.247627    0.603007     0.007504
AU2876   AU        0.715584    0.284433    0.568316     0.007504
PD2877   PD        0.748731    0.246798    0.570132     0.005394
AU2878   AU        0.752224    0.284367    0.601905     0.007504
PD2879   PD        0.786713    0.250589    0.603657     0.005394
PD2880   PD        0.787119    0.281802    0.568927     0.005394
PD2881   PD        0.820823    0.249021    0.570866     0.005394
AU2882   AU        0.076815    0.357090    0.567262     0.007504
PD2883   PD        0.112970    0.323473    0.570012     0.005394
PD2884   PD        0.111831    0.356998    0.602255     0.005394
PD2885   PD        0.146348    0.320592    0.602553     0.005394
PD2886   PD        0.146596    0.359627    0.571752     0.005394
PD2887   PD        0.182356    0.322489    0.569154     0.005394
PD2888   PD        0.184123    0.354761    0.600362     0.005394
AU2889   AU        0.217361    0.319756    0.602419     0.007504
AU2890   AU        0.218829    0.356513    0.569493     0.007504
AU2891   AU        0.254938    0.321256    0.569626     0.007504
PD2892   PD        0.251970    0.353605    0.604330     0.005394
AU2893   AU        0.287698    0.319678    0.601714     0.007504
AU2894   AU        0.287373    0.356817    0.567366     0.007504
AU2895   AU        0.325586    0.320444    0.569214     0.007504
PD2896   PD        0.323118    0.356916    0.601733     0.005394
AU2897   AU        0.362936    0.322908    0.601096     0.007504
PD2898   PD        0.357532    0.357342    0.570392     0.005394
PD2899   PD        0.399388    0.320261    0.568477     0.005394
PD2900   PD        0.395674    0.357763    0.603729     0.005394
AU2901   AU        0.429901    0.320833    0.603829     0.007504
PD2902   PD        0.428985    0.357469    0.571566     0.005394
AU2903   AU        0.465218    0.321428    0.571855     0.007504
PD2904   PD        0.465502    0.355434    0.603075     0.005394
PD2905   PD        0.499622    0.320114    0.602533     0.005394
AU2906   AU        0.502580    0.353022    0.569336     0.007504
PD2907   PD        0.538162    0.319855    0.568029     0.005394
AU2908   AU        0.538944    0.356319    0.601651     0.007504
PD2909   PD        0.571737    0.317969    0.603472     0.005394
PD2910   PD        0.572857    0.358144    0.570723     0.005394
PD2911   PD        0.609349    0.321297    0.569517     0.005394
PD2912   PD        0.611037    0.355911    0.602233     0.005394
AU2913   AU        0.645379    0.317428    0.603919     0.007504
PD2914   PD        0.644129    0.354513    0.570840     0.005394
AU2915   AU        0.678892    0.319331    0.570064     0.007504
AU2916   AU        0.682057    0.356147    0.602789     0.007504
PD2917   PD        0.715489    0.318883    0.602007     0.005394
AU2918   AU        0.714394    0.357090    0.568285     0.007504
PD2919   PD        0.749839    0.320485    0.567544     0.005394
PD2920   PD        0.748725    0.355716    0.600669     0.005394
AU2921   AU        0.787397    0.319837    0.600747     0.007504
PD2922   PD        0.788001    0.358539    0.569016     0.005394
AU2923   AU        0.821917    0.321127    0.566780     0.007504
PD2924   PD        0.824462    0.353056    0.601020     0.005394
AU2925   AU        0.859445    0.357405    0.566009     0.007504
PD2926   PD        0.072956    0.392315    0.602427     0.005394
PD2927   PD        0.077406    0.427113    0.569456     0.005394
AU2928   AU        0.111818    0.393577    0.572312     0.007504
AU2929   AU        0.110547    0.429561    0.605872     0.007504
AU2930   AU        0.147413    0.393980    0.604835     0.007504
AU2931   AU        0.148124    0.429297    0.571452     0.007504
AU2932   AU        0.181302    0.392722    0.569593     0.007504
PD2933   PD        0.182344    0.426637    0.603584     0.005394
AU2934   AU        0.217020    0.393798    0.602858     0.007504
PD2935   PD        0.218849    0.427133    0.571156     0.005394
PD2936   PD        0.254178    0.387770    0.571582     0.005394
PD2937   PD        0.252962    0.429540    0.601002     0.005394
PD2938   PD        0.288799    0.392976    0.604240     0.005394
AU2939   AU        0.288960    0.428814    0.568889     0.007504
PD2940   PD        0.324025    0.393418    0.571201     0.005394
AU2941   AU        0.323526    0.428039    0.602306     0.007504
AU2942   AU        0.360456    0.394924    0.601651     0.007504
PD2943   PD        0.358091    0.426874    0.567318     0.005394
AU2944   AU        0.396794    0.393643    0.571370     0.007504
AU2945   AU        0.396407    0.429494    0.604754     0.007504
PD2946   PD        0.432079    0.391089    0.604494     0.005394
PD2947   PD        0.432452    0.428295    0.568024     0.005394
PD2948   PD        0.467021    0.389659    0.568168     0.005394
AU2949   AU        0.465833    0.428004    0.601659     0.007504
AU2950   AU        0.499149    0.389729    0.601193     0.007504
PD2951   PD        0.501555    0.426659    0.568392     0.005394
PD2952   PD        0.536208    0.389799    0.571132     0.005394
PD2953   PD        0.534084    0.430639    0.603107     0.005394
PD2954   PD        0.571709    0.392214    0.607778     0.005394
PD2955   PD        0.574300    0.427199    0.569524     0.005394
PD2956   PD        0.607606    0.390793    0.569541     0.005394
AU2957   AU        0.609145    0.429097    0.601466     0.007504
PD2958   PD        0.643961    0.391044    0.605061     0.005394
PD2959   PD        0.644469    0.428392    0.566665     0.005394
PD2960   PD        0.680592    0.393220    0.568989     0.005394
PD2961   PD        0.680509    0.425120    0.601056     0.005394
AU2962   AU        0.717019    0.392313    0.602242     0.007504
AU2963   AU        0.715896    0.427619    0.568189     0.007504
PD2964   PD        0.749513    0.390639    0.568365     0.005394
PD2965   PD        0.751779    0.427737    0.601103     0.005394
PD2966   PD        0.787960    0.387251    0.599533     0.005394
AU2967   AU        0.787084    0.428258    0.570698     0.007504
AU2968   AU        0.821430    0.391679    0.570727     0.007504
PD2969   PD        0.821030    0.426016    0.605269     0.005394
PD2970   PD        0.860931    0.391835    0.601045     0.005394
PD2971   PD        0.855836    0.430521    0.572179     0.005394
AU2972   AU        0.075857    0.462807    0.605706     0.007504
PD2973   PD        0.074360    0.497197    0.569070     0.005394
AU2974   AU        0.110711    0.461867    0.569590     0.007504
PD2975   PD        0.112046    0.495903    0.601274     0.005394
AU2976   AU        0.147742    0.461857    0.604314     0.007504
PD2977   PD        0.148128    0.497696    0.569031     0.005394
AU2978   AU        0.184456    0.461866    0.569434     0.007504
AU2979   AU        0.182438    0.497703    0.601051     0.007504
PD2980   PD        0.218078    0.462250    0.601442     0.005394
AU2981   AU        0.218696    0.498741    0.568672     0.007504
AU2982   AU        0.253030    0.464058    0.567548     0.007504
AU2983   AU        0.253627    0.498835    0.603167     0.007504
AU2984   AU        0.287524    0.464140    0.601034     0.007504
PD2985   PD        0.289066    0.499143    0.569263     0.005394
AU2986   AU        0.323388    0.462624    0.568729     0.007504
AU2987   AU        0.324782    0.498763    0.601781     0.007504
AU2988   AU        0.358856    0.461216    0.602591     0.007504
PD2989   PD        0.359623    0.498657    0.569391     0.005394
AU2990   AU        0.392653    0.461397    0.569291     0.007504
AU2991   AU        0.394607    0.497975    0.602760     0.007504
AU2992   AU        0.430700    0.463549    0.602109     0.007504
PD2993   PD        0.429764    0.500744    0.568535     0.005394
AU2994   AU        0.465249    0.462880    0.568077     0.007504
PD2995   PD        0.467800    0.498476    0.600944     0.005394
PD2996   PD        0.504381    0.461362    0.602258     0.005394
AU2997   AU        0.499613    0.499487    0.568694     0.007504
AU2998   AU        0.536212    0.463339    0.567578     0.007504
PD2999   PD        0.537457    0.496801    0.602939     0.005394
AU3000   AU        0.572704    0.463577    0.602561     0.007504
PD3001   PD        0.573553    0.498959    0.568840     0.005394
PD3002   PD        0.607651    0.462205    0.571148     0.005394
AU3003   AU        0.610145    0.497485    0.602185     0.007504
AU3004   AU        0.646399    0.461433    0.602202     0.007504
AU3005   AU        0.644982    0.496933    0.569722     0.007504
AU3006   AU        0.680252    0.462148    0.569446     0.007504
PD3007   PD        0.682570    0.495365    0.603172     0.005394
PD3008   PD        0.716268    0.461969    0.602604     0.005394
AU3009   AU        0.716332    0.498253    0.571145     0.007504
PD3010   PD        0.753364    0.463760    0.569159     0.005394
AU3011   AU        0.751024    0.497373    0.602822     0.007504
PD3012   PD        0.789654    0.464148    0.604216     0.005394
PD3013   PD        0.787749    0.502619    0.570167     0.005394
PD3014   PD        0.824763    0.465746    0.569485     0.005394
AU3015   AU        0.821844    0.499065    0.602781     0.007504
PD3016   PD        0.857052    0.464992    0.604073     0.005394
AU3017   AU        0.860373    0.498439    0.569107     0.007504
PD3018   PD        0.078814    0.530576    0.604093     0.005394
PD3019   PD        0.075873    0.566795    0.566376     0.005394
AU3020   AU        0.111459    0.533933    0.569108     0.007504
AU3021   AU        0.111315    0.570039    0.603036     0.007504
AU3022   AU        0.146788    0.531378    0.600963     0.007504
AU3023   AU        0.147036    0.567520    0.569892     0.007504
AU3024   AU        0.182222    0.531769    0.568709     0.007504
AU3025   AU        0.182114    0.568971    0.602032     0.007504
PD3026   PD        0.220215    0.533734    0.603214     0.005394
PD3027   PD        0.216796    0.569094    0.568419     0.005394
PD3028   PD        0.255744    0.535096    0.568586     0.005394
AU3029   AU        0.255519    0.570562    0.601180     0.007504
AU3030   AU        0.290309    0.533506    0.602612     0.007504
AU3031   AU        0.290505    0.569733    0.568100     0.007504
AU3032   AU        0.323638    0.532057    0.567528     0.007504
PD3033   PD        0.325995    0.567677    0.601201     0.005394
AU3034   AU        0.357037    0.534156    0.602699     0.007504
PD3035   PD        0.361201    0.568039    0.568746     0.005394
AU3036   AU        0.396922    0.533625    0.571289     0.007504
AU3037   AU        0.393525    0.569620    0.602769     0.007504
AU3038   AU        0.431857    0.535318    0.603282     0.007504
AU3039   AU        0.429729    0.569407    0.569478     0.007504
AU3040   AU        0.464760    0.535235    0.569640     0.007504
AU3041   AU        0.464786    0.569145    0.602298     0.007504
PD3042   PD        0.499237    0.534578    0.601655     0.005394
AU3043   AU        0.501030    0.570991    0.568740     0.007504
PD3044   PD        0.536437    0.536571    0.569457     0.005394
PD3045   PD        0.536891    0.569118    0.600826     0.005394
PD3046   PD        0.574858    0.533656    0.602349     0.005394
PD3047   PD        0.572033    0.569712    0.568759     0.005394
AU3048   AU        0.608905    0.533961    0.570435     0.007504
PD3049   PD        0.613370    0.564563    0.606615     0.005394
AU3050   AU        0.648420    0.533094    0.601832     0.007504
AU3051   AU        0.646409    0.567565    0.568140     0.007504
PD3052   PD        0.682483    0.533841    0.568129     0.005394
AU3053   AU        0.682729    0.570338    0.601579     0.007504
AU3054   AU        0.716972    0.532454    0.603776     0.007504
PD3055   PD        0.717333    0.570434    0.569471     0.005394
AU3056   AU        0.750690    0.534530    0.568795     0.007504
AU3057   AU        0.751344    0.571455    0.603708     0.007504
AU3058   AU        0.788277    0.534850    0.604024     0.007504
PD3059   PD        0.788046    0.569905    0.572325     0.005394
PD3060   PD        0.823364    0.534855    0.572133     0.005394
AU3061   AU        0.825372    0.568647    0.603163     0.007504
PD3062   PD        0.861279    0.532430    0.603670     0.005394
PD3063   PD        0.860129    0.565506    0.568117     0.005394
PD3064   PD        0.112399    0.603873    0.567179     0.005394
AU3065   AU        0.110961    0.636554    0.601329     0.007504
AU3066   AU        0.149378    0.604586    0.600825     0.007504
PD3067   PD        0.149266    0.639057    0.569673     0.005394
AU3068   AU        0.183599    0.605276    0.569270     0.007504
AU3069   AU        0.181871    0.639947    0.603695     0.007504
AU3070   AU        0.217330    0.602778    0.603934     0.007504
AU3071   AU        0.217425    0.639560    0.569300     0.007504
AU3072   AU        0.252619    0.604688    0.568707     0.007504
AU3073   AU        0.254389    0.637747    0.603206     0.007504
PD3074   PD        0.290230    0.605978    0.604249     0.005394
AU3075   AU        0.289275    0.638551    0.569583     0.007504
AU3076   AU        0.325609    0.603416    0.569603     0.007504
AU3077   AU        0.324352    0.639925    0.601336     0.007504
AU3078   AU        0.358832    0.604736    0.602122     0.007504
AU3079   AU        0.359583    0.639395    0.568683     0.007504
AU3080   AU        0.394398    0.603946    0.568764     0.007504
AU3081   AU        0.394928    0.641068    0.602400     0.007504
AU3082   AU        0.427865    0.605038    0.601957     0.007504
AU3083   AU        0.431350    0.642112    0.568273     0.007504
AU3084   AU        0.463661    0.605746    0.569454     0.007504
AU3085   AU        0.466230    0.639857    0.602206     0.007504
PD3086   PD        0.501539    0.606164    0.599402     0.005394
AU3087   AU        0.501668    0.640247    0.568471     0.007504
PD3088   PD        0.534934    0.604675    0.567175     0.005394
PD3089   PD        0.536329    0.641901    0.601969     0.005394
PD3090   PD        0.573167    0.603589    0.603444     0.005394
AU3091   AU        0.570363    0.641238    0.567847     0.007504
AU3092   AU        0.609730    0.603443    0.569140     0.007504
PD3093   PD        0.606620    0.644780    0.600412     0.005394
PD3094   PD        0.643885    0.605037    0.602024     0.005394
PD3095   PD        0.645101    0.641631    0.570435     0.005394
PD3096   PD        0.682517    0.608309    0.569704     0.005394
PD3097   PD        0.684012    0.641362    0.604347     0.005394
AU3098   AU        0.717009    0.605992    0.603109     0.007504
AU3099   AU        0.716576    0.641017    0.570112     0.007504
PD3100   PD        0.748991    0.603848    0.570524     0.005394
AU3101   AU        0.753318    0.641420    0.602349     0.007504
AU3102   AU        0.787181    0.605210    0.604158     0.007504
AU3103   AU        0.786808    0.641071    0.568842     0.007504
AU3104   AU        0.824489    0.604837    0.567051     0.007504
PD3105   PD        0.825759    0.642785    0.598020     0.005394
PD3106   PD        0.144333    0.673713    0.603231     0.005394
PD3107   PD        0.106825    0.711375    0.544040     0.005394
PD3108   PD        0.182790    0.676788    0.570128     0.005394
PD3109   PD        0.180934    0.709144    0.605270     0.005394
AU3110   AU        0.218424    0.672420    0.603515     0.007504
PD3111   PD        0.182098    0.745994    0.569133     0.005394
AU3112   AU        0.252820    0.674072    0.568785     0.007504
PD3113   PD        0.251828    0.708912    0.603068     0.005394
AU3114   AU        0.288620    0.673220    0.602985     0.007504
PD3115   PD        0.287066    0.710710    0.571855     0.005394
AU3116   AU        0.324587    0.674962    0.568699     0.007504
AU3117   AU        0.324608    0.710679    0.603461     0.007504
AU3118   AU        0.360673    0.675184    0.601790     0.007504
AU3119   AU        0.360946    0.711366    0.569177     0.007504
PD3120   PD        0.394859    0.673612    0.567343     0.005394
AU3121   AU        0.394933    0.708932    0.602498     0.007504
AU3122   AU        0.430841    0.674465    0.603327     0.007504
PD3123   PD        0.431273    0.710298    0.570453     0.005394
AU3124   AU        0.466366    0.678816    0.567539     0.007504
PD3125   PD        0.466537    0.711631    0.603331     0.005394
PD3126   PD        0.500579    0.676742    0.605042     0.005394
AU3127   AU        0.500998    0.712313    0.567624     0.007504
AU3128   AU        0.535730    0.677338    0.568695     0.007504
AU3129   AU        0.535538    0.709125    0.601206     0.007504
PD3130   PD        0.570685    0.674770    0.601296     0.005394
PD3131   PD        0.572682    0.713336    0.569958     0.005394
PD3132   PD        0.608740    0.676457    0.567060     0.005394
PD3133   PD        0.608030    0.710096    0.599297     0.005394
AU3134   AU        0.646979    0.676011    0.602269     0.007504
PD3135   PD        0.645543    0.708846    0.567442     0.005394
AU3136   AU        0.682398    0.674690    0.569137     0.007504
AU3137   AU        0.681095    0.713259    0.601087     0.007504
PD3138   PD        0.719169    0.675285    0.600753     0.005394
PD3139   PD        0.715011    0.710243    0.569800     0.005394
AU3140   AU        0.752905    0.673759    0.568661     0.007504
AU3141   AU        0.751436    0.710544    0.600322     0.007504
AU3142   AU        0.789177    0.677118    0.602253     0.007504
AU3143   AU        0.786147    0.711618    0.568826     0.007504
PD3144   PD        0.145928    0.710251    0.571977     0.005394
PD3145   PD        0.143281    0.811719    0.546864     0.005394
AU3146   AU        0.216675    0.784368    0.567740     0.007504
PD3147   PD        0.253252    0.748341    0.570188     0.005394
PD3148   PD        0.252309    0.784093    0.601531     0.005394
AU3149   AU        0.289425    0.745443    0.601194     0.007504
AU3150   AU        0.286646    0.782393    0.569013     0.007504
AU3151   AU        0.324706    0.744127    0.570342     0.007504
AU3152   AU        0.322241    0.783210    0.599572     0.007504
AU3153   AU        0.360411    0.745488    0.600770     0.007504
AU3154   AU        0.360800    0.780586    0.568984     0.007504
AU3155   AU        0.396016    0.746788    0.568535     0.007504
PD3156   PD        0.394834    0.783379    0.600810     0.005394
PD3157   PD        0.428796    0.747807    0.602595     0.005394
AU3158   AU        0.429157    0.784863    0.568653     0.007504
AU3159   AU        0.465071    0.747204    0.569929     0.007504
AU3160   AU        0.466146    0.782639    0.602474     0.007504
PD3161   PD        0.499499    0.747794    0.604065     0.005394
PD3162   PD        0.502063    0.782940    0.567074     0.005394
PD3163   PD        0.534940    0.746007    0.570598     0.005394
AU3164   AU        0.535964    0.782863    0.600833     0.007504
AU3165   AU        0.574860    0.746209    0.601534     0.007504
PD3166   PD        0.573047    0.780798    0.569125     0.005394
AU3167   AU        0.609478    0.747436    0.570613     0.007504
PD3168   PD        0.610792    0.783743    0.601914     0.005394
PD3169   PD        0.641846    0.745797    0.602369     0.005394
AU3170   AU        0.645162    0.782017    0.569331     0.007504
AU3171   AU        0.681611    0.747351    0.568558     0.007504
PD3172   PD        0.680210    0.780154    0.599362     0.005394
AU3173   AU        0.717451    0.744160    0.603350     0.007504
PD3174   PD        0.716576    0.780549    0.568019     0.005394
PD3175   PD        0.751637    0.746987    0.568401     0.005394
PD3176   PD        0.316093    0.845681    0.673718     0.005394
PD3177   PD        0.324434    0.820045    0.565811     0.005394
AU3178   AU        0.360522    0.817405    0.600803     0.007504
PD3179   PD        0.357891    0.852991    0.569308     0.005394
AU3180   AU        0.396287    0.818514    0.567503     0.007504
PD3181   PD        0.395147    0.851659    0.599856     0.005394
AU3182   AU        0.429455    0.819619    0.602258     0.007504
AU3183   AU        0.430329    0.855580    0.568423     0.007504
PD3184   PD        0.464848    0.820587    0.568470     0.005394
PD3185   PD        0.460648    0.857855    0.602755     0.005394
PD3186   PD        0.502061    0.818910    0.600282     0.005394
PD3187   PD        0.501052    0.855329    0.568672     0.005394
PD3188   PD        0.537262    0.820408    0.569468     0.005394
PD3189   PD        0.499578    0.889839    0.602048     0.005394
PD3190   PD        0.571551    0.814385    0.600536     0.005394
PD3191   PD        0.608947    0.919020    0.604257     0.005394
AU3192   AU        0.608041    0.818893    0.570855     0.007504
PD3193   PD        0.652703    0.821017    0.600089     0.005394
AU3194   AU        0.290716    0.141100    0.636494     0.007504
PD3195   PD        0.324735    0.143492    0.670101     0.005394
PD3196   PD        0.359306    0.141401    0.636222     0.005394
AU3197   AU        0.395175    0.104741    0.632757     0.007504
PD3198   PD        0.396659    0.140945    0.670683     0.005394
PD3199   PD        0.431075    0.105054    0.667330     0.005394
AU3200   AU        0.431251    0.141324    0.636342     0.007504
AU3201   AU        0.466007    0.107888    0.633781     0.007504
PD3202   PD        0.467613    0.144803    0.670130     0.005394
PD3203   PD        0.500119    0.104878    0.666418     0.005394
AU3204   AU        0.502638    0.141407    0.637273     0.007504
PD3205   PD        0.539805    0.105785    0.637907     0.005394
PD3206   PD        0.561505    0.129201    0.712832     0.005394
AU3207   AU        0.573713    0.142367    0.638548     0.007504
PD3208   PD        0.610234    0.143436    0.669198     0.005394
PD3209   PD        0.710532    0.174118    0.665672     0.005394
AU3210   AU        0.216703    0.210524    0.633926     0.007504
AU3211   AU        0.255414    0.176837    0.634898     0.007504
PD3212   PD        0.252088    0.211148    0.668526     0.005394
AU3213   AU        0.291093    0.179935    0.668356     0.007504
AU3214   AU        0.289757    0.213459    0.636135     0.007504
AU3215   AU        0.324446    0.178903    0.635424     0.007504
AU3216   AU        0.324841    0.212685    0.669802     0.007504
AU3217   AU        0.359175    0.176447    0.669999     0.007504
AU3218   AU        0.357331    0.213613    0.636600     0.007504
AU3219   AU        0.393589    0.178159    0.636525     0.007504
AU3220   AU        0.394599    0.212947    0.669552     0.007504
AU3221   AU        0.430096    0.175945    0.668643     0.007504
PD3222   PD        0.430420    0.212491    0.638951     0.005394
AU3223   AU        0.464247    0.175599    0.636238     0.007504
AU3224   AU        0.465141    0.214355    0.669714     0.007504
PD3225   PD        0.501910    0.176860    0.668673     0.005394
PD3226   PD        0.504585    0.211386    0.635699     0.005394
PD3227   PD        0.537655    0.176458    0.636230     0.005394
PD3228   PD        0.536393    0.213703    0.668913     0.005394
PD3229   PD        0.569242    0.177713    0.669201     0.005394
PD3230   PD        0.572950    0.212941    0.637717     0.005394
AU3231   AU        0.608697    0.177876    0.634189     0.007504
PD3232   PD        0.608897    0.212750    0.669316     0.005394
PD3233   PD        0.680151    0.175102    0.701650     0.005394
AU3234   AU        0.643330    0.211226    0.636560     0.007504
PD3235   PD        0.676789    0.176668    0.634117     0.005394
PD3236   PD        0.680722    0.210185    0.669049     0.005394
PD3237   PD        0.713656    0.213917    0.635134     0.005394
PD3238   PD        0.146235    0.284308    0.638530     0.005394
PD3239   PD        0.180691    0.248528    0.635443     0.005394
AU3240   AU        0.182935    0.285180    0.668209     0.007504
PD3241   PD        0.216768    0.248129    0.665920     0.005394
AU3242   AU        0.218632    0.286283    0.635460     0.007504
PD3243   PD        0.254167    0.249884    0.638553     0.005394
AU3244   AU        0.249440    0.284120    0.669495     0.007504
PD3245   PD        0.289837    0.247648    0.669186     0.005394
PD3246   PD        0.287081    0.285352    0.635150     0.005394
AU3247   AU        0.324530    0.248979    0.637055     0.007504
PD3248   PD        0.323674    0.285632    0.670047     0.005394
AU3249   AU        0.360300    0.248962    0.670345     0.007504
PD3250   PD        0.358552    0.283928    0.635474     0.005394
PD3251   PD        0.394149    0.247982    0.637348     0.005394
PD3252   PD        0.393256    0.282473    0.668440     0.005394
PD3253   PD        0.428502    0.249731    0.669187     0.005394
PD3254   PD        0.429934    0.283121    0.636457     0.005394
PD3255   PD        0.466287    0.248224    0.635472     0.005394
PD3256   PD        0.465796    0.281445    0.667796     0.005394
PD3257   PD        0.501557    0.249944    0.669316     0.005394
PD3258   PD        0.501964    0.284645    0.636782     0.005394
AU3259   AU        0.537448    0.249007    0.636729     0.007504
AU3260   AU        0.539653    0.285921    0.669493     0.007504
AU3261   AU        0.571247    0.248297    0.669197     0.007504
AU3262   AU        0.573690    0.282130    0.634692     0.007504
AU3263   AU        0.610105    0.249159    0.636189     0.007504
AU3264   AU        0.608894    0.283073    0.669197     0.007504
PD3265   PD        0.642905    0.246390    0.668366     0.005394
PD3266   PD        0.644599    0.284785    0.637624     0.005394
PD3267   PD        0.680194    0.249186    0.638990     0.005394
PD3268   PD        0.680274    0.284898    0.668155     0.005394
PD3269   PD        0.715385    0.250017    0.671228     0.005394
AU3270   AU        0.717032    0.285818    0.633203     0.007504
PD3271   PD        0.750357    0.248301    0.638742     0.005394
AU3272   AU        0.753415    0.283009    0.668426     0.007504
PD3273   PD        0.788266    0.245140    0.669162     0.005394
AU3274   AU        0.148238    0.321814    0.669964     0.007504
PD3275   PD        0.145496    0.356492    0.636766     0.005394
AU3276   AU        0.182812    0.321929    0.637553     0.007504
AU3277   AU        0.183786    0.359632    0.670513     0.007504
AU3278   AU        0.217299    0.320735    0.669656     0.007504
AU3279   AU        0.218849    0.357258    0.635180     0.007504
PD3280   PD        0.250957    0.320738    0.636016     0.005394
AU3281   AU        0.252714    0.359429    0.667648     0.007504
AU3282   AU        0.286534    0.320103    0.668321     0.007504
AU3283   AU        0.288840    0.355336    0.634913     0.007504
PD3284   PD        0.323014    0.319977    0.634921     0.005394
AU3285   AU        0.322459    0.355587    0.668118     0.007504
PD3286   PD        0.359080    0.320153    0.667091     0.005394
PD3287   PD        0.357115    0.356418    0.635849     0.005394
AU3288   AU        0.393520    0.318180    0.637444     0.007504
AU3289   AU        0.394886    0.356044    0.669405     0.007504
PD3290   PD        0.429622    0.317250    0.667882     0.005394
PD3291   PD        0.428338    0.354139    0.636092     0.005394
PD3292   PD        0.465378    0.320011    0.635587     0.005394
AU3293   AU        0.462351    0.355441    0.668766     0.007504
PD3294   PD        0.500778    0.317701    0.669105     0.005394
AU3295   AU        0.502119    0.357845    0.638471     0.007504
PD3296   PD        0.535695    0.321791    0.635417     0.005394
PD3297   PD        0.535668    0.355471    0.670557     0.005394
AU3298   AU        0.573522    0.318288    0.669248     0.007504
AU3299   AU        0.576247    0.354664    0.635256     0.007504
PD3300   PD        0.608244    0.319895    0.637207     0.005394
PD3301   PD        0.609401    0.355809    0.671599     0.005394
AU3302   AU        0.643023    0.319559    0.669176     0.007504
PD3303   PD        0.642997    0.353942    0.635180     0.005394
AU3304   AU        0.680737    0.320279    0.634439     0.007504
AU3305   AU        0.680185    0.355928    0.667872     0.007504
AU3306   AU        0.717927    0.321423    0.667265     0.007504
AU3307   AU        0.717120    0.355858    0.635651     0.007504
AU3308   AU        0.752429    0.319551    0.634111     0.007504
PD3309   PD        0.752857    0.354160    0.669145     0.005394
PD3310   PD        0.843486    0.335476    0.684060     0.005394
PD3311   PD        0.787531    0.356153    0.632690     0.005394
PD3312   PD        0.111720    0.393053    0.635763     0.005394
AU3313   AU        0.112819    0.430167    0.669896     0.007504
AU3314   AU        0.144594    0.390663    0.669767     0.007504
AU3315   AU        0.146317    0.426216    0.636669     0.007504
AU3316   AU        0.181525    0.390767    0.636980     0.007504
AU3317   AU        0.183385    0.428450    0.668320     0.007504
AU3318   AU        0.218834    0.393816    0.667056     0.007504
AU3319   AU        0.218721    0.427877    0.636601     0.007504
PD3320   PD        0.253684    0.394642    0.633568     0.005394
AU3321   AU        0.253143    0.426726    0.670644     0.007504
AU3322   AU        0.287194    0.394171    0.667826     0.007504
AU3323   AU        0.288976    0.429650    0.635387     0.007504
AU3324   AU        0.322535    0.392585    0.636197     0.007504
AU3325   AU        0.322696    0.427495    0.668741     0.007504
AU3326   AU        0.359710    0.390484    0.670615     0.007504
AU3327   AU        0.358735    0.428820    0.636651     0.007504
PD3328   PD        0.392842    0.393970    0.636528     0.005394
AU3329   AU        0.397523    0.425912    0.668773     0.007504
PD3330   PD        0.432461    0.392375    0.669872     0.005394
PD3331   PD        0.430442    0.425513    0.634271     0.005394
PD3332   PD        0.465857    0.391393    0.637525     0.005394
AU3333   AU        0.467105    0.428386    0.669805     0.007504
AU3334   AU        0.500267    0.390989    0.669639     0.007504
AU3335   AU        0.500067    0.425760    0.636241     0.007504
PD3336   PD        0.538256    0.390945    0.634755     0.005394
PD3337   PD        0.536179    0.428511    0.667848     0.005394
PD3338   PD        0.569386    0.389436    0.669329     0.005394
PD3339   PD        0.573409    0.430023    0.636645     0.005394
PD3340   PD        0.610401    0.393723    0.636646     0.005394
PD3341   PD        0.608619    0.426063    0.670213     0.005394
PD3342   PD        0.646478    0.391265    0.671072     0.005394
AU3343   AU        0.645843    0.425964    0.636159     0.007504
AU3344   AU        0.681524    0.392201    0.634979     0.007504
AU3345   AU        0.681345    0.425557    0.669833     0.007504
AU3346   AU        0.715162    0.390706    0.667672     0.007504
PD3347   PD        0.717319    0.426381    0.636290     0.005394
PD3348   PD        0.752325    0.390520    0.635932     0.005394
PD3349   PD        0.752573    0.422725    0.670198     0.005394
AU3350   AU        0.788631    0.390465    0.669033     0.007504
PD3351   PD        0.787002    0.428942    0.636055     0.005394
AU3352   AU        0.823637    0.388942    0.632667     0.007504
PD3353   PD        0.823372    0.428207    0.674046     0.005394
AU3354   AU        0.110995    0.462742    0.637690     0.007504
PD3355   PD        0.077211    0.463932    0.673973     0.005394
PD3356   PD        0.146930    0.463482    0.668424     0.005394
AU3357   AU        0.147550    0.498229    0.634566     0.007504
PD3358   PD        0.181528    0.461836    0.636657     0.005394
PD3359   PD        0.182038    0.497590    0.668176     0.005394
PD3360   PD        0.216814    0.461211    0.667847     0.005394
AU3361   AU        0.218373    0.496395    0.635741     0.007504
AU3362   AU        0.251919    0.463243    0.634942     0.007504
AU3363   AU        0.253265    0.498488    0.669872     0.007504
AU3364   AU        0.289957    0.463643    0.669685     0.007504
AU3365   AU        0.286799    0.498738    0.636421     0.007504
AU3366   AU        0.322166    0.463492    0.634943     0.007504
AU3367   AU        0.325136    0.498670    0.667524     0.007504
AU3368   AU        0.358902    0.462516    0.668922     0.007504
AU3369   AU        0.358579    0.497307    0.634491     0.007504
AU3370   AU        0.396334    0.463461    0.636242     0.007504
AU3371   AU        0.394286    0.498827    0.668786     0.007504
AU3372   AU        0.430993    0.460224    0.669693     0.007504
PD3373   PD        0.433896    0.499858    0.637407     0.005394
AU3374   AU        0.466042    0.463305    0.635122     0.007504
PD3375   PD        0.467085    0.496163    0.668192     0.005394
PD3376   PD        0.500727    0.463814    0.669894     0.005394
PD3377   PD        0.501960    0.496076    0.635714     0.005394
AU3378   AU        0.536865    0.461144    0.637119     0.007504
PD3379   PD        0.540333    0.498224    0.668073     0.005394
PD3380   PD        0.569661    0.460946    0.671662     0.005394
AU3381   AU        0.575220    0.496319    0.635219     0.007504
PD3382   PD        0.611559    0.464628    0.635195     0.005394
PD3383   PD        0.607102    0.499652    0.672157     0.005394
PD3384   PD        0.644450    0.459510    0.672343     0.005394
PD3385   PD        0.645029    0.494018    0.637650     0.005394
PD3386   PD        0.683095    0.459539    0.636286     0.005394
PD3387   PD        0.679425    0.498782    0.667207     0.005394
AU3388   AU        0.716485    0.459046    0.668607     0.007504
AU3389   AU        0.717446    0.495384    0.635609     0.007504
PD3390   PD        0.753835    0.459834    0.636797     0.005394
AU3391   AU        0.751337    0.495455    0.668506     0.007504
AU3392   AU        0.788241    0.461136    0.670831     0.007504
AU3393   AU        0.786886    0.497573    0.638501     0.007504
AU3394   AU        0.823636    0.462398    0.637447     0.007504
PD3395   PD        0.819242    0.496288    0.670395     0.005394
PD3396   PD        0.113160    0.531831    0.635541     0.005394
PD3397   PD        0.147411    0.532948    0.667791     0.005394
PD3398   PD        0.146026    0.571555    0.636193     0.005394
PD3399   PD        0.183119    0.532843    0.634727     0.005394
PD3400   PD        0.181319    0.569246    0.667702     0.005394
AU3401   AU        0.218244    0.532137    0.668785     0.007504
PD3402   PD        0.215763    0.566665    0.635480     0.005394
PD3403   PD        0.253477    0.533506    0.636523     0.005394
AU3404   AU        0.252401    0.569512    0.667097     0.007504
AU3405   AU        0.287862    0.532767    0.668386     0.007504
AU3406   AU        0.290043    0.567790    0.633877     0.007504
AU3407   AU        0.322973    0.532275    0.634695     0.007504
AU3408   AU        0.321888    0.568408    0.668831     0.007504
AU3409   AU        0.359078    0.531779    0.666954     0.007504
AU3410   AU        0.357966    0.568736    0.637009     0.007504
AU3411   AU        0.394908    0.533398    0.635767     0.007504
PD3412   PD        0.394880    0.568279    0.668796     0.005394
PD3413   PD        0.430477    0.533687    0.666921     0.005394
AU3414   AU        0.429633    0.570930    0.636815     0.007504
AU3415   AU        0.467693    0.533443    0.636569     0.007504
AU3416   AU        0.466006    0.567707    0.669278     0.007504
PD3417   PD        0.503662    0.532712    0.668528     0.005394
PD3418   PD        0.499176    0.569837    0.634871     0.005394
PD3419   PD        0.536251    0.533098    0.635892     0.005394
PD3420   PD        0.537461    0.570905    0.668248     0.005394
AU3421   AU        0.572078    0.534312    0.670584     0.007504
PD3422   PD        0.570633    0.566795    0.634815     0.005394
PD3423   PD        0.609775    0.531001    0.636782     0.005394
PD3424   PD        0.604971    0.572989    0.670594     0.005394
PD3425   PD        0.647193    0.536406    0.666587     0.005394
PD3426   PD        0.645751    0.566267    0.638216     0.005394
PD3427   PD        0.681518    0.533892    0.635821     0.005394
PD3428   PD        0.685087    0.567058    0.668745     0.005394
AU3429   AU        0.717441    0.531765    0.666584     0.007504
AU3430   AU        0.718204    0.570739    0.636904     0.007504
AU3431   AU        0.753897    0.533601    0.635510     0.007504
PD3432   PD        0.752330    0.569719    0.671810     0.005394
AU3433   AU        0.784916    0.532996    0.670696     0.007504
AU3434   AU        0.789885    0.571018    0.637511     0.007504
PD3435   PD        0.821883    0.533328    0.634906     0.005394
AU3436   AU        0.145538    0.606164    0.668857     0.007504
AU3437   AU        0.146039    0.640691    0.636511     0.007504
AU3438   AU        0.182556    0.603064    0.633888     0.007504
AU3439   AU        0.182080    0.638502    0.671410     0.007504
AU3440   AU        0.219764    0.605169    0.669349     0.007504
AU3441   AU        0.216749    0.639114    0.635436     0.007504
PD3442   PD        0.251215    0.603808    0.635057     0.005394
AU3443   AU        0.252668    0.639294    0.669341     0.007504
PD3444   PD        0.287842    0.603198    0.666887     0.005394
AU3445   AU        0.288301    0.640306    0.635222     0.007504
AU3446   AU        0.323771    0.603631    0.635041     0.007504
PD3447   PD        0.326897    0.637810    0.668859     0.005394
PD3448   PD        0.358797    0.603958    0.667522     0.005394
AU3449   AU        0.361897    0.640807    0.635153     0.007504
PD3450   PD        0.395608    0.604585    0.637079     0.005394
AU3451   AU        0.394997    0.640140    0.671424     0.007504
AU3452   AU        0.429427    0.605847    0.670215     0.007504
AU3453   AU        0.428823    0.640905    0.637835     0.007504
AU3454   AU        0.464817    0.605071    0.634805     0.007504
PD3455   PD        0.462897    0.641060    0.669373     0.005394
PD3456   PD        0.501890    0.602333    0.668284     0.005394
AU3457   AU        0.499984    0.639854    0.639346     0.007504
PD3458   PD        0.536055    0.604281    0.635228     0.005394
PD3459   PD        0.535190    0.637530    0.670007     0.005394
PD3460   PD        0.575364    0.601712    0.670234     0.005394
PD3461   PD        0.573730    0.640966    0.634557     0.005394
PD3462   PD        0.610238    0.600310    0.637901     0.005394
PD3463   PD        0.609634    0.642420    0.669157     0.005394
AU3464   AU        0.643724    0.606533    0.668874     0.007504
PD3465   PD        0.641891    0.638792    0.631763     0.005394
PD3466   PD        0.681129    0.605690    0.636332     0.005394
AU3467   AU        0.681765    0.642383    0.666569     0.007504
AU3468   AU        0.716279    0.607428    0.667869     0.007504
AU3469   AU        0.718208    0.642729    0.636770     0.007504
AU3470   AU        0.752841    0.604900    0.639438     0.007504
AU3471   AU        0.752613    0.641852    0.669391     0.007504
PD3472   PD        0.790339    0.605684    0.673440     0.005394
PD3473   PD        0.787751    0.640365    0.634050     0.005394
PD3474   PD        0.184935    0.673658    0.638002     0.005394
AU3475   AU        0.218384    0.675868    0.669697     0.007504
AU3476   AU        0.218598    0.709601    0.636844     0.007504
AU3477   AU        0.252746    0.674513    0.635884     0.007504
PD3478   PD        0.254719    0.709345    0.667212     0.005394
AU3479   AU        0.288265    0.674100    0.668432     0.007504
AU3480   AU        0.288649    0.711711    0.635345     0.007504
AU3481   AU        0.324770    0.673270    0.635711     0.007504
AU3482   AU        0.321480    0.713058    0.668751     0.007504
PD3483   PD        0.359822    0.674476    0.671147     0.005394
PD3484   PD        0.359618    0.710245    0.636561     0.005394
PD3485   PD        0.394933    0.675412    0.635384     0.005394
AU3486   AU        0.394365    0.713165    0.669391     0.007504
AU3487   AU        0.430023    0.678159    0.667815     0.007504
AU3488   AU        0.430474    0.712415    0.635184     0.007504
AU3489   AU        0.465258    0.675277    0.635751     0.007504
AU3490   AU        0.464112    0.714941    0.668152     0.007504
AU3491   AU        0.498487    0.676738    0.669746     0.007504
AU3492   AU        0.498964    0.713411    0.636301     0.007504
PD3493   PD        0.533010    0.677504    0.637280     0.005394
PD3494   PD        0.534838    0.708446    0.666662     0.005394
PD3495   PD        0.571923    0.671765    0.666651     0.005394
PD3496   PD        0.572772    0.709588    0.634513     0.005394
PD3497   PD        0.609741    0.679964    0.636382     0.005394
AU3498   AU        0.608636    0.712994    0.667164     0.007504
PD3499   PD        0.644245    0.678491    0.668860     0.005394
PD3500   PD        0.646248    0.712929    0.636822     0.005394
PD3501   PD        0.685066    0.677817    0.637362     0.005394
PD3502   PD        0.683677    0.711979    0.671402     0.005394
AU3503   AU        0.719822    0.675448    0.668136     0.007504
PD3504   PD        0.714625    0.708944    0.634210     0.005394
AU3505   AU        0.754680    0.678191    0.634878     0.007504
PD3506   PD        0.254590    0.745281    0.632510     0.005394
PD3507   PD        0.288981    0.747934    0.666075     0.005394
PD3508   PD        0.287355    0.778664    0.636714     0.005394
AU3509   AU        0.324477    0.748625    0.634204     0.007504
PD3510   PD        0.328426    0.785057    0.667609     0.005394
AU3511   AU        0.358872    0.747229    0.667830     0.007504
AU3512   AU        0.359429    0.783583    0.634403     0.007504
AU3513   AU        0.393438    0.747283    0.634970     0.007504
AU3514   AU        0.391864    0.782568    0.668021     0.007504
AU3515   AU        0.428077    0.747498    0.667811     0.007504
AU3516   AU        0.427881    0.782389    0.636837     0.007504
PD3517   PD        0.463278    0.746373    0.633783     0.005394
AU3518   AU        0.464993    0.780135    0.664509     0.007504
AU3519   AU        0.501492    0.747239    0.667896     0.007504
PD3520   PD        0.502378    0.784458    0.635727     0.005394
PD3521   PD        0.538892    0.744442    0.633556     0.005394
PD3522   PD        0.538112    0.781951    0.667960     0.005394
PD3523   PD        0.570125    0.746536    0.669375     0.005394
AU3524   AU        0.572716    0.783499    0.635109     0.007504
AU3525   AU        0.610184    0.748801    0.635240     0.007504
PD3526   PD        0.603991    0.779866    0.669901     0.005394
PD3527   PD        0.647931    0.750168    0.667930     0.005394
AU3528   AU        0.645908    0.782217    0.630372     0.007504
PD3529   PD        0.680572    0.744657    0.633983     0.005394
PD3530   PD        0.393573    0.818330    0.637447     0.005394
PD3531   PD        0.430733    0.819616    0.666592     0.005394
AU3532   AU        0.464381    0.818856    0.634342     0.007504
PD3533   PD        0.497473    0.818795    0.667722     0.005394
PD3534   PD        0.575739    0.857756    0.703967     0.005394
AU3535   AU        0.432609    0.141249    0.703308     0.007504
PD3536   PD        0.499164    0.142829    0.699342     0.005394
AU3537   AU        0.291906    0.214415    0.703776     0.007504
AU3538   AU        0.325598    0.175941    0.702689     0.007504
AU3539   AU        0.326258    0.214141    0.736862     0.007504
AU3540   AU        0.358084    0.211806    0.701758     0.007504
PD3541   PD        0.396803    0.177430    0.703517     0.005394
PD3542   PD        0.391237    0.214113    0.735981     0.005394
AU3543   AU        0.430294    0.177698    0.737270     0.007504
AU3544   AU        0.429148    0.213439    0.703676     0.007504
AU3545   AU        0.464965    0.178137    0.703927     0.007504
PD3546   PD        0.464818    0.213502    0.735884     0.005394
AU3547   AU        0.501440    0.181506    0.736465     0.007504
AU3548   AU        0.502389    0.214150    0.699973     0.007504
PD3549   PD        0.537887    0.177740    0.704065     0.005394
AU3550   AU        0.538521    0.214222    0.732512     0.007504
AU3551   AU        0.572134    0.214069    0.699237     0.007504
AU3552   AU        0.607424    0.177332    0.703023     0.007504
PD3553   PD        0.606715    0.210915    0.736663     0.005394
PD3554   PD        0.678335    0.213244    0.736640     0.005394
PD3555   PD        0.217158    0.284777    0.704345     0.005394
PD3556   PD        0.252908    0.246427    0.698573     0.005394
AU3557   AU        0.252376    0.285312    0.734693     0.007504
PD3558   PD        0.285550    0.213930    0.763894     0.005394
AU3559   AU        0.286077    0.285080    0.700504     0.007504
PD3560   PD        0.325284    0.249598    0.703286     0.005394
AU3561   AU        0.323599    0.287239    0.733181     0.007504
AU3562   AU        0.360624    0.250624    0.736027     0.007504
PD3563   PD        0.359430    0.284563    0.702146     0.005394
PD3564   PD        0.394182    0.250709    0.701527     0.005394
PD3565   PD        0.394294    0.285708    0.734077     0.005394
AU3566   AU        0.429071    0.250892    0.734854     0.007504
PD3567   PD        0.429691    0.282075    0.703372     0.005394
PD3568   PD        0.466660    0.246819    0.703181     0.005394
AU3569   AU        0.465113    0.286239    0.735666     0.007504
AU3570   AU        0.500813    0.247708    0.735786     0.007504
AU3571   AU        0.500387    0.282572    0.703163     0.007504
AU3572   AU        0.536381    0.249209    0.700707     0.007504
AU3573   AU        0.538060    0.283308    0.734679     0.007504
AU3574   AU        0.572719    0.250186    0.737509     0.007504
AU3575   AU        0.574222    0.284843    0.703294     0.007504
AU3576   AU        0.606026    0.250017    0.700926     0.007504
PD3577   PD        0.609852    0.283431    0.735993     0.005394
PD3578   PD        0.641785    0.250309    0.734373     0.005394
AU3579   AU        0.645046    0.284654    0.702350     0.007504
PD3580   PD        0.682345    0.247724    0.700950     0.005394
PD3581   PD        0.679796    0.282415    0.732449     0.005394
PD3582   PD        0.715004    0.283600    0.702071     0.005394
PD3583   PD        0.183613    0.322045    0.700869     0.005394
PD3584   PD        0.216560    0.322286    0.735249     0.005394
AU3585   AU        0.219088    0.356942    0.703279     0.007504
PD3586   PD        0.252815    0.320362    0.702702     0.005394
AU3587   AU        0.254912    0.356508    0.734770     0.007504
AU3588   AU        0.288010    0.320911    0.736536     0.007504
PD3589   PD        0.287076    0.356187    0.700236     0.005394
AU3590   AU        0.321224    0.321840    0.700704     0.007504
PD3591   PD        0.320273    0.356799    0.735775     0.005394
AU3592   AU        0.357250    0.318994    0.736198     0.007504
PD3593   PD        0.361430    0.353201    0.703761     0.005394
PD3594   PD        0.394199    0.321022    0.703573     0.005394
PD3595   PD        0.395012    0.354735    0.733504     0.005394
AU3596   AU        0.429447    0.317273    0.733304     0.007504
PD3597   PD        0.428929    0.353547    0.702529     0.005394
PD3598   PD        0.466873    0.317537    0.700381     0.005394
AU3599   AU        0.466230    0.351811    0.735923     0.007504
AU3600   AU        0.505219    0.319344    0.735582     0.007504
PD3601   PD        0.499264    0.352684    0.701986     0.005394
PD3602   PD        0.535988    0.319083    0.701077     0.005394
PD3603   PD        0.536259    0.354408    0.734683     0.005394
AU3604   AU        0.572408    0.318914    0.737101     0.007504
AU3605   AU        0.573441    0.353835    0.702685     0.007504
AU3606   AU        0.608638    0.319108    0.702237     0.007504
AU3607   AU        0.609099    0.355000    0.735884     0.007504
AU3608   AU        0.646117    0.317520    0.736790     0.007504
PD3609   PD        0.644265    0.355825    0.702826     0.005394
AU3610   AU        0.680747    0.318459    0.701232     0.007504
PD3611   PD        0.679868    0.356275    0.735880     0.005394
PD3612   PD        0.714745    0.321020    0.739317     0.005394
PD3613   PD        0.717472    0.353946    0.703755     0.005394
PD3614   PD        0.750739    0.319828    0.701787     0.005394
AU3615   AU        0.144158    0.427124    0.699873     0.007504
AU3616   AU        0.179807    0.393702    0.701036     0.007504
PD3617   PD        0.182159    0.386425    0.768814     0.005394
AU3618   AU        0.220903    0.393378    0.735226     0.007504
AU3619   AU        0.218305    0.427403    0.701347     0.007504
AU3620   AU        0.253835    0.391513    0.704251     0.007504
AU3621   AU        0.254692    0.428899    0.736766     0.007504
PD3622   PD        0.289915    0.392732    0.735848     0.005394
AU3623   AU        0.288868    0.428942    0.700778     0.007504
PD3624   PD        0.322244    0.392335    0.700646     0.005394
PD3625   PD        0.320354    0.430173    0.733914     0.005394
PD3626   PD        0.356349    0.391261    0.734392     0.005394
AU3627   AU        0.357815    0.428281    0.701142     0.007504
PD3628   PD        0.393645    0.392388    0.703565     0.005394
PD3629   PD        0.395824    0.422692    0.735441     0.005394
PD3630   PD        0.430870    0.388308    0.737863     0.005394
PD3631   PD        0.430260    0.425665    0.702944     0.005394
AU3632   AU        0.466690    0.388360    0.703173     0.007504
PD3633   PD        0.464937    0.430751    0.735199     0.005394
PD3634   PD        0.502964    0.392727    0.737314     0.005394
AU3635   AU        0.500318    0.426538    0.703720     0.007504
PD3636   PD        0.537317    0.390034    0.701534     0.005394
AU3637   AU        0.536256    0.427223    0.736894     0.007504
AU3638   AU        0.570820    0.389388    0.735808     0.007504
PD3639   PD        0.573262    0.423207    0.704037     0.005394
PD3640   PD        0.608403    0.389374    0.702879     0.005394
PD3641   PD        0.609220    0.423573    0.738569     0.005394
PD3642   PD        0.644244    0.387921    0.736724     0.005394
PD3643   PD        0.642883    0.423574    0.705272     0.005394
AU3644   AU        0.681175    0.390331    0.702165     0.007504
PD3645   PD        0.682059    0.424008    0.734801     0.005394
PD3646   PD        0.716800    0.361279    0.764271     0.005394
AU3647   AU        0.719098    0.426448    0.701322     0.007504
PD3648   PD        0.755187    0.391856    0.701529     0.005394
PD3649   PD        0.750687    0.426050    0.732964     0.005394
AU3650   AU        0.789223    0.424561    0.701561     0.007504
PD3651   PD        0.148877    0.496399    0.703945     0.005394
AU3652   AU        0.181661    0.460769    0.702889     0.007504
PD3653   PD        0.106467    0.527469    0.770329     0.005394
PD3654   PD        0.216972    0.465668    0.734852     0.005394
PD3655   PD        0.216863    0.497815    0.702306     0.005394
AU3656   AU        0.253392    0.464530    0.703118     0.007504
AU3657   AU        0.251940    0.497986    0.732183     0.007504
PD3658   PD        0.288160    0.464247    0.736848     0.005394
PD3659   PD        0.291243    0.497135    0.700419     0.005394
AU3660   AU        0.324229    0.462484    0.702151     0.007504
PD3661   PD        0.325941    0.498600    0.732792     0.005394
PD3662   PD        0.359799    0.461411    0.735295     0.005394
PD3663   PD        0.357400    0.497620    0.700435     0.005394
AU3664   AU        0.394082    0.461721    0.702762     0.007504
PD3665   PD        0.391658    0.499461    0.733025     0.005394
AU3666   AU        0.427845    0.463066    0.736775     0.007504
AU3667   AU        0.430347    0.498371    0.700391     0.007504
PD3668   PD        0.464473    0.465237    0.703788     0.005394
PD3669   PD        0.464488    0.499814    0.735712     0.005394
PD3670   PD        0.502313    0.464208    0.735834     0.005394
PD3671   PD        0.501071    0.498338    0.701803     0.005394
PD3672   PD        0.538342    0.463996    0.703991     0.005394
AU3673   AU        0.537918    0.498199    0.737702     0.007504
PD3674   PD        0.571501    0.462476    0.736453     0.005394
AU3675   AU        0.574213    0.497083    0.704097     0.007504
PD3676   PD        0.609096    0.458775    0.704166     0.005394
AU3677   AU        0.610880    0.495344    0.735004     0.007504
PD3678   PD        0.647655    0.459416    0.736483     0.005394
PD3679   PD        0.643828    0.501043    0.701046     0.005394
PD3680   PD        0.683037    0.463802    0.698804     0.005394
PD3681   PD        0.678787    0.498422    0.733030     0.005394
PD3682   PD        0.715664    0.461863    0.733844     0.005394
PD3683   PD        0.716117    0.498348    0.701332     0.005394
AU3684   AU        0.752745    0.462376    0.702174     0.007504
PD3685   PD        0.750748    0.498484    0.734308     0.005394
PD3686   PD        0.788924    0.500034    0.703947     0.005394
PD3687   PD        0.181120    0.535108    0.702023     0.005394
AU3688   AU        0.218684    0.533319    0.736146     0.007504
AU3689   AU        0.217416    0.569464    0.702202     0.007504
AU3690   AU        0.253915    0.532421    0.701843     0.007504
PD3691   PD        0.255354    0.568658    0.734779     0.005394
AU3692   AU        0.289711    0.531744    0.733280     0.007504
AU3693   AU        0.287982    0.567647    0.701760     0.007504
AU3694   AU        0.324253    0.534347    0.700974     0.007504
AU3695   AU        0.324125    0.568770    0.734790     0.007504
PD3696   PD        0.357182    0.533853    0.736763     0.005394
PD3697   PD        0.357402    0.569426    0.702967     0.005394
AU3698   AU        0.395051    0.534322    0.700726     0.007504
PD3699   PD        0.393871    0.570126    0.733503     0.005394
PD3700   PD        0.431792    0.537417    0.733078     0.005394
PD3701   PD        0.430878    0.570418    0.701160     0.005394
AU3702   AU        0.464547    0.532017    0.701350     0.007504
AU3703   AU        0.465463    0.569440    0.736657     0.007504
AU3704   AU        0.500267    0.532096    0.733294     0.007504
AU3705   AU        0.499048    0.570257    0.702534     0.007504
PD3706   PD        0.537603    0.533227    0.703608     0.005394
AU3707   AU        0.536786    0.570169    0.734914     0.007504
PD3708   PD        0.573675    0.531610    0.735969     0.005394
PD3709   PD        0.575567    0.568639    0.704828     0.005394
PD3710   PD        0.609618    0.536008    0.700578     0.005394
PD3711   PD        0.608962    0.571402    0.737755     0.005394
PD3712   PD        0.645874    0.535681    0.735482     0.005394
AU3713   AU        0.646366    0.569519    0.701256     0.007504
PD3714   PD        0.682046    0.534152    0.705831     0.005394
PD3715   PD        0.679666    0.579200    0.784818     0.005394
PD3716   PD        0.714281    0.530474    0.739084     0.005394
PD3717   PD        0.715181    0.569005    0.702765     0.005394
AU3718   AU        0.749483    0.533486    0.702058     0.007504
AU3719   AU        0.183541    0.603495    0.702248     0.007504
PD3720   PD        0.216268    0.605846    0.734648     0.005394
AU3721   AU        0.218245    0.640833    0.701024     0.007504
AU3722   AU        0.250768    0.605428    0.702577     0.007504
PD3723   PD        0.252388    0.641972    0.735011     0.005394
PD3724   PD        0.285468    0.604270    0.732659     0.005394
AU3725   AU        0.287533    0.640175    0.701086     0.007504
PD3726   PD        0.323089    0.604015    0.700281     0.005394
AU3727   AU        0.324561    0.638153    0.735572     0.007504
AU3728   AU        0.358143    0.603484    0.733820     0.007504
PD3729   PD        0.361014    0.639503    0.702377     0.005394
AU3730   AU        0.394722    0.602799    0.702452     0.007504
AU3731   AU        0.395624    0.637666    0.734931     0.007504
AU3732   AU        0.431810    0.605397    0.734095     0.007504
PD3733   PD        0.428691    0.640861    0.703421     0.005394
AU3734   AU        0.464867    0.604166    0.701977     0.007504
AU3735   AU        0.465140    0.642488    0.734514     0.007504
AU3736   AU        0.501276    0.605822    0.733614     0.007504
PD3737   PD        0.500349    0.641161    0.701900     0.005394
PD3738   PD        0.535698    0.606590    0.702356     0.005394
AU3739   AU        0.537515    0.640060    0.732538     0.007504
PD3740   PD        0.572562    0.603646    0.734990     0.005394
AU3741   AU        0.572616    0.641173    0.701524     0.007504
AU3742   AU        0.610783    0.604046    0.705395     0.007504
PD3743   PD        0.607389    0.640920    0.735315     0.005394
AU3744   AU        0.647391    0.607348    0.736462     0.007504
AU3745   AU        0.646600    0.640654    0.701958     0.007504
PD3746   PD        0.679195    0.605886    0.697193     0.005394
PD3747   PD        0.684573    0.640283    0.735614     0.005394
AU3748   AU        0.717539    0.606088    0.734449     0.007504
AU3749   AU        0.718271    0.640173    0.702293     0.007504
PD3750   PD        0.752485    0.605108    0.703122     0.005394
PD3751   PD        0.252218    0.675437    0.700842     0.005394
PD3752   PD        0.278312    0.746675    0.800891     0.005394
PD3753   PD        0.286213    0.710605    0.699927     0.005394
AU3754   AU        0.322184    0.674333    0.700933     0.007504
PD3755   PD        0.322263    0.708896    0.735948     0.005394
AU3756   AU        0.361898    0.676460    0.734888     0.007504
AU3757   AU        0.359144    0.712435    0.701460     0.007504
AU3758   AU        0.394905    0.678215    0.702304     0.007504
PD3759   PD        0.358061    0.743425    0.736406     0.005394
PD3760   PD        0.429162    0.674146    0.734742     0.005394
PD3761   PD        0.431292    0.708439    0.702983     0.005394
AU3762   AU        0.466071    0.677295    0.702735     0.007504
AU3763   AU        0.466648    0.713802    0.733398     0.007504
AU3764   AU        0.499973    0.676637    0.734430     0.007504
PD3765   PD        0.501567    0.714510    0.699853     0.005394
AU3766   AU        0.534758    0.675500    0.700791     0.007504
PD3767   PD        0.533827    0.714902    0.733551     0.005394
AU3768   AU        0.569363    0.676722    0.731556     0.007504
AU3769   AU        0.570137    0.710500    0.698743     0.007504
PD3770   PD        0.607903    0.680178    0.701903     0.005394
PD3771   PD        0.647542    0.682051    0.800841     0.005394
PD3772   PD        0.644151    0.671568    0.738847     0.005394
PD3773   PD        0.650664    0.710745    0.702069     0.005394
PD3774   PD        0.681968    0.676419    0.704838     0.005394
PD3775   PD        0.322237    0.745085    0.702096     0.005394
AU3776   AU        0.393586    0.748485    0.703542     0.007504
PD3777   PD        0.391219    0.727060    0.846074     0.005394
AU3778   AU        0.430880    0.782738    0.699001     0.007504
AU3779   AU        0.465399    0.747759    0.701729     0.007504
PD3780   PD        0.565591    0.750209    0.805515     0.005394
PD3781   PD        0.499582    0.782457    0.698966     0.005394
PD3782   PD        0.537380    0.747584    0.698229     0.005394
PD3783   PD        0.611927    0.745717    0.701396     0.005394
PD3784   PD        0.394636    0.211940    0.799543     0.005394
PD3785   PD        0.508357    0.151910    0.792636     0.005394
PD3786   PD        0.288997    0.285830    0.766606     0.005394
PD3787   PD        0.361602    0.283249    0.769599     0.005394
AU3788   AU        0.394002    0.247435    0.769112     0.007504
PD3789   PD        0.395456    0.282187    0.802180     0.005394
PD3790   PD        0.430823    0.285950    0.768312     0.005394
AU3791   AU        0.463872    0.248365    0.767800     0.007504
AU3792   AU        0.468087    0.283174    0.801057     0.007504
AU3793   AU        0.500594    0.284256    0.765799     0.007504
AU3794   AU        0.533762    0.249492    0.770199     0.007504
AU3795   AU        0.538238    0.283432    0.803331     0.007504
PD3796   PD        0.572410    0.283232    0.766851     0.005394
PD3797   PD        0.644507    0.283017    0.766751     0.005394
AU3798   AU        0.289271    0.357234    0.769449     0.007504
AU3799   AU        0.324227    0.318508    0.769693     0.007504
AU3800   AU        0.326712    0.354131    0.800306     0.007504
PD3801   PD        0.359619    0.318951    0.801935     0.005394
PD3802   PD        0.360189    0.351709    0.767720     0.005394
AU3803   AU        0.396799    0.320286    0.767683     0.007504
AU3804   AU        0.394252    0.355170    0.802208     0.007504
AU3805   AU        0.430196    0.317914    0.804085     0.007504
PD3806   PD        0.432123    0.354104    0.768910     0.005394
AU3807   AU        0.464352    0.318335    0.768866     0.007504
PD3808   PD        0.465701    0.352447    0.801437     0.005394
PD3809   PD        0.503234    0.318248    0.801607     0.005394
PD3810   PD        0.501521    0.355126    0.766950     0.005394
AU3811   AU        0.537701    0.316527    0.769816     0.007504
AU3812   AU        0.534292    0.352472    0.800982     0.007504
AU3813   AU        0.575399    0.315945    0.800971     0.007504
AU3814   AU        0.572233    0.353735    0.770498     0.007504
AU3815   AU        0.610032    0.317982    0.767903     0.007504
PD3816   PD        0.610194    0.357080    0.800498     0.005394
PD3817   PD        0.643146    0.351784    0.768578     0.005394
PD3818   PD        0.112354    0.428772    0.738679     0.005394
AU3819   AU        0.253656    0.393010    0.770370     0.007504
PD3820   PD        0.287605    0.390334    0.803251     0.005394
AU3821   AU        0.290086    0.427770    0.769275     0.007504
AU3822   AU        0.323590    0.392195    0.768609     0.007504
AU3823   AU        0.325703    0.427475    0.802418     0.007504
AU3824   AU        0.361116    0.391899    0.799337     0.007504
AU3825   AU        0.359067    0.426759    0.766970     0.007504
AU3826   AU        0.394671    0.388413    0.767927     0.007504
PD3827   PD        0.395164    0.429036    0.802154     0.005394
AU3828   AU        0.429797    0.388991    0.799478     0.007504
AU3829   AU        0.430894    0.425595    0.767691     0.007504
PD3830   PD        0.465415    0.391015    0.766462     0.005394
PD3831   PD        0.464247    0.424313    0.800295     0.005394
PD3832   PD        0.497790    0.388579    0.798131     0.005394
PD3833   PD        0.502312    0.426253    0.769275     0.005394
PD3834   PD        0.537473    0.388519    0.767874     0.005394
PD3835   PD        0.540094    0.387218    0.837848     0.005394
PD3836   PD        0.568642    0.394518    0.803503     0.005394
AU3837   AU        0.571549    0.424386    0.769244     0.007504
PD3838   PD        0.608629    0.388871    0.770002     0.005394
PD3839   PD        0.612296    0.424714    0.802432     0.005394
PD3840   PD        0.645047    0.387962    0.798554     0.005394
PD3841   PD        0.647715    0.422569    0.766734     0.005394
PD3842   PD        0.681650    0.389486    0.766149     0.005394
AU3843   AU        0.716898    0.428814    0.767951     0.007504
PD3844   PD        0.175639    0.492513    0.802001     0.005394
PD3845   PD        0.252925    0.465410    0.767269     0.005394
PD3846   PD        0.290325    0.463685    0.803504     0.005394
AU3847   AU        0.288374    0.497279    0.766399     0.007504
PD3848   PD        0.325564    0.462586    0.768999     0.005394
AU3849   AU        0.324995    0.498480    0.802327     0.007504
AU3850   AU        0.360805    0.460305    0.801834     0.007504
AU3851   AU        0.359095    0.496471    0.767982     0.007504
AU3852   AU        0.394750    0.463735    0.768987     0.007504
AU3853   AU        0.396024    0.498041    0.802137     0.007504
PD3854   PD        0.430589    0.461440    0.800071     0.005394
PD3855   PD        0.428472    0.499358    0.766896     0.005394
AU3856   AU        0.466097    0.460621    0.770215     0.007504
AU3857   AU        0.462307    0.498535    0.801447     0.007504
PD3858   PD        0.501831    0.460616    0.802033     0.005394
PD3859   PD        0.497676    0.499221    0.768371     0.005394
PD3860   PD        0.536558    0.462498    0.767619     0.005394
PD3861   PD        0.536058    0.496149    0.804931     0.005394
PD3862   PD        0.570175    0.458409    0.802125     0.005394
PD3863   PD        0.576229    0.496493    0.770373     0.005394
PD3864   PD        0.604719    0.464842    0.770786     0.005394
AU3865   AU        0.570394    0.533992    0.802537     0.007504
PD3866   PD        0.645810    0.463849    0.803390     0.005394
PD3867   PD        0.643723    0.497530    0.768313     0.005394
PD3868   PD        0.682124    0.461547    0.770565     0.005394
PD3869   PD        0.711111    0.513065    0.780433     0.005394
AU3870   AU        0.254899    0.533370    0.767649     0.007504
PD3871   PD        0.292037    0.502821    0.837444     0.005394
AU3872   AU        0.289039    0.569388    0.766151     0.007504
PD3873   PD        0.322908    0.532380    0.766034     0.005394
PD3874   PD        0.254592    0.571055    0.801338     0.005394
AU3875   AU        0.358169    0.535627    0.800308     0.007504
AU3876   AU        0.359517    0.568258    0.765878     0.007504
AU3877   AU        0.395175    0.532588    0.767079     0.007504
PD3878   PD        0.394458    0.570760    0.801707     0.005394
AU3879   AU        0.428036    0.534926    0.800937     0.007504
AU3880   AU        0.430448    0.571519    0.768363     0.007504
AU3881   AU        0.465088    0.535139    0.770595     0.007504
AU3882   AU        0.466265    0.571749    0.801795     0.007504
AU3883   AU        0.499727    0.533186    0.801953     0.007504
AU3884   AU        0.500658    0.571147    0.766377     0.007504
PD3885   PD        0.532456    0.531324    0.770409     0.005394
PD3886   PD        0.535365    0.569632    0.799550     0.005394
PD3887   PD        0.572457    0.494010    0.838575     0.005394
AU3888   AU        0.571755    0.568533    0.767657     0.007504
PD3889   PD        0.608986    0.533669    0.769619     0.005394
PD3890   PD        0.633206    0.518852    0.842972     0.005394
PD3891   PD        0.650219    0.535143    0.799568     0.005394
PD3892   PD        0.642303    0.570736    0.769559     0.005394
PD3893   PD        0.706118    0.530954    0.817232     0.005394
PD3894   PD        0.285875    0.634477    0.782741     0.005394
AU3895   AU        0.324142    0.604187    0.767622     0.007504
PD3896   PD        0.365151    0.570721    0.838760     0.005394
PD3897   PD        0.359910    0.638690    0.770138     0.005394
PD3898   PD        0.395276    0.603797    0.765040     0.005394
PD3899   PD        0.397255    0.637760    0.804013     0.005394
PD3900   PD        0.428906    0.606802    0.803728     0.005394
PD3901   PD        0.429256    0.639028    0.767054     0.005394
AU3902   AU        0.466695    0.607182    0.770155     0.007504
PD3903   PD        0.466686    0.641721    0.798713     0.005394
PD3904   PD        0.505043    0.603729    0.804400     0.005394
PD3905   PD        0.501391    0.641688    0.765070     0.005394
PD3906   PD        0.533655    0.603608    0.767833     0.005394
PD3907   PD        0.536630    0.644053    0.801655     0.005394
AU3908   AU        0.571049    0.606441    0.798142     0.007504
AU3909   AU        0.571190    0.637817    0.764874     0.007504
PD3910   PD        0.608319    0.604552    0.765364     0.005394
PD3911   PD        0.646407    0.643636    0.768558     0.005394
PD3912   PD        0.397895    0.676075    0.771369     0.005394
PD3913   PD        0.395112    0.712185    0.734076     0.005394
PD3914   PD        0.460692    0.673921    0.765873     0.005394
PD3915   PD        0.502506    0.715322    0.768876     0.005394
AU3916   AU        0.538717    0.677848    0.765196     0.007504
AU3917   AU        0.428973    0.426471    0.834419     0.007504
PD3918   PD        0.466039    0.390422    0.832365     0.005394
PD3919   PD        0.500568    0.423477    0.830184     0.005394
PD3920   PD        0.394739    0.461314    0.836423     0.005394
PD3921   PD        0.428711    0.495819    0.836140     0.005394
AU3922   AU        0.463571    0.461643    0.832230     0.007504
PD3923   PD        0.499194    0.503110    0.838707     0.005394
PD3924   PD        0.540585    0.424624    0.871143     0.005394
PD3925   PD        0.463480    0.535200    0.832793     0.005394
