data_00001
_audit_creation_method   'DISCUS'

_data_chemical_name_common 'Au.cell: lattice parameter from Pearson85'

_cell_length_a             69.3413
_cell_length_b             69.3413
_cell_length_c             69.3413
_cell_angle_alpha     90.0000
_cell_angle_beta      90.0000
_cell_angle_gamma     90.0000

_symmetry_space_group_name_H-M   'P1              '

loop_
_atom_site_label
_atom_site_symbol
_atom_site_fract_x
_atom_site_fract_y
_atom_site_fract_z
_atom_site_u_iso_or_equiv
PD2398   PD        0.412353    0.324118    0.147647     0.005394
PD2402   PD        0.471176    0.324118    0.147647     0.005394
PD2406   PD        0.530000    0.324118    0.147647     0.005394
PD2458   PD        0.353529    0.382941    0.147647     0.005394
PD2459   PD        0.382941    0.353529    0.147647     0.005394
PD2462   PD        0.412353    0.382941    0.147647     0.005394
PD2463   PD        0.441765    0.353529    0.147647     0.005394
PD2466   PD        0.471176    0.382941    0.147647     0.005394
PD2467   PD        0.500588    0.353529    0.147647     0.005394
PD2470   PD        0.530000    0.382941    0.147647     0.005394
PD2471   PD        0.559412    0.353529    0.147647     0.005394
PD2474   PD        0.588824    0.382941    0.147647     0.005394
PD2519   PD        0.324118    0.412353    0.147647     0.005394
PD2522   PD        0.353529    0.441765    0.147647     0.005394
PD2523   PD        0.382941    0.412353    0.147647     0.005394
PD2526   PD        0.412353    0.441765    0.147647     0.005394
PD2527   PD        0.441765    0.412353    0.147647     0.005394
PD2528   PD        0.441765    0.441765    0.118235     0.005394
PD2529   PD        0.471176    0.412353    0.118235     0.005394
PD2530   PD        0.471176    0.441765    0.147647     0.005394
PD2531   PD        0.500588    0.412353    0.147647     0.005394
PD2532   PD        0.500588    0.441765    0.118235     0.005394
PD2534   PD        0.530000    0.441765    0.147647     0.005394
PD2535   PD        0.559412    0.412353    0.147647     0.005394
PD2538   PD        0.588824    0.441765    0.147647     0.005394
PD2539   PD        0.618235    0.412353    0.147647     0.005394
PD2583   PD        0.324118    0.471176    0.147647     0.005394
PD2586   PD        0.353529    0.500588    0.147647     0.005394
PD2587   PD        0.382941    0.471176    0.147647     0.005394
PD2589   PD        0.412353    0.471176    0.118235     0.005394
PD2590   PD        0.412353    0.500588    0.147647     0.005394
PD2591   PD        0.441765    0.471176    0.147647     0.005394
PD2592   PD        0.441765    0.500588    0.118235     0.005394
PD2593   PD        0.471176    0.471176    0.118235     0.005394
PD2594   PD        0.471176    0.500588    0.147647     0.005394
PD2595   PD        0.500588    0.471176    0.147647     0.005394
PD2596   PD        0.500588    0.500588    0.118235     0.005394
PD2597   PD        0.530000    0.471176    0.118235     0.005394
PD2598   PD        0.530000    0.500588    0.147647     0.005394
PD2599   PD        0.559412    0.471176    0.147647     0.005394
PD2602   PD        0.588824    0.500588    0.147647     0.005394
PD2603   PD        0.618235    0.471176    0.147647     0.005394
PD2647   PD        0.324118    0.530000    0.147647     0.005394
PD2650   PD        0.353529    0.559412    0.147647     0.005394
PD2651   PD        0.382941    0.530000    0.147647     0.005394
PD2654   PD        0.412353    0.559412    0.147647     0.005394
PD2655   PD        0.441765    0.530000    0.147647     0.005394
PD2657   PD        0.471176    0.530000    0.118235     0.005394
PD2658   PD        0.471176    0.559412    0.147647     0.005394
PD2659   PD        0.500588    0.530000    0.147647     0.005394
PD2662   PD        0.530000    0.559412    0.147647     0.005394
PD2663   PD        0.559412    0.530000    0.147647     0.005394
PD2666   PD        0.588824    0.559412    0.147647     0.005394
PD2667   PD        0.618235    0.530000    0.147647     0.005394
PD2715   PD        0.382941    0.588824    0.147647     0.005394
PD2718   PD        0.412353    0.618235    0.147647     0.005394
PD2719   PD        0.441765    0.588824    0.147647     0.005394
PD2722   PD        0.471176    0.618235    0.147647     0.005394
PD2723   PD        0.500588    0.588824    0.147647     0.005394
PD2726   PD        0.530000    0.618235    0.147647     0.005394
PD2727   PD        0.559412    0.588824    0.147647     0.005394
PD3354   PD        0.353529    0.265294    0.206471     0.005394
PD3358   PD        0.412353    0.265294    0.206471     0.005394
PD3359   PD        0.441765    0.235882    0.206471     0.005394
PD3360   PD        0.441765    0.265294    0.177059     0.005394
PD3362   PD        0.471176    0.265294    0.206471     0.005394
PD3363   PD        0.500588    0.235882    0.206471     0.005394
PD3364   PD        0.500588    0.265294    0.177059     0.005394
PD3366   PD        0.530000    0.265294    0.206471     0.005394
PD3370   PD        0.588824    0.265294    0.206471     0.005394
PD3414   PD        0.294706    0.324118    0.206471     0.005394
PD3415   PD        0.324118    0.294706    0.206471     0.005394
PD3416   PD        0.324118    0.324118    0.177059     0.005394
PD3418   PD        0.353529    0.324118    0.206471     0.005394
PD3419   PD        0.382941    0.294706    0.206471     0.005394
PD3420   PD        0.382941    0.324118    0.177059     0.005394
PD3421   PD        0.412353    0.294706    0.177059     0.005394
PD3422   PD        0.412353    0.324118    0.206471     0.005394
PD3423   PD        0.441765    0.294706    0.206471     0.005394
PD3424   PD        0.441765    0.324118    0.177059     0.005394
PD3425   PD        0.471176    0.294706    0.177059     0.005394
PD3426   PD        0.471176    0.324118    0.206471     0.005394
PD3427   PD        0.500588    0.294706    0.206471     0.005394
PD3428   PD        0.500588    0.324118    0.177059     0.005394
PD3429   PD        0.530000    0.294706    0.177059     0.005394
PD3430   PD        0.530000    0.324118    0.206471     0.005394
PD3431   PD        0.559412    0.294706    0.206471     0.005394
PD3432   PD        0.559412    0.324118    0.177059     0.005394
PD3434   PD        0.588824    0.324118    0.206471     0.005394
PD3435   PD        0.618235    0.294706    0.206471     0.005394
PD3436   PD        0.618235    0.324118    0.177059     0.005394
PD3438   PD        0.647647    0.324118    0.206471     0.005394
PD3475   PD        0.265294    0.353529    0.206471     0.005394
PD3478   PD        0.294706    0.382941    0.206471     0.005394
PD3479   PD        0.324118    0.353529    0.206471     0.005394
PD3480   PD        0.324118    0.382941    0.177059     0.005394
PD3481   PD        0.353529    0.353529    0.177059     0.005394
PD3482   PD        0.353529    0.382941    0.206471     0.005394
AU3483   AU        0.382941    0.353529    0.206471     0.007504
PD3484   PD        0.382941    0.382941    0.177059     0.005394
PD3485   PD        0.412353    0.353529    0.177059     0.005394
AU3486   AU        0.412353    0.382941    0.206471     0.007504
PD3487   PD        0.441765    0.353529    0.206471     0.005394
PD3488   PD        0.441765    0.382941    0.177059     0.005394
PD3489   PD        0.471176    0.353529    0.177059     0.005394
AU3490   AU        0.471176    0.382941    0.206471     0.007504
PD3491   PD        0.500588    0.353529    0.206471     0.005394
PD3492   PD        0.500588    0.382941    0.177059     0.005394
PD3493   PD        0.530000    0.353529    0.177059     0.005394
PD3494   PD        0.530000    0.382941    0.206471     0.005394
PD3495   PD        0.559412    0.353529    0.206471     0.005394
PD3496   PD        0.559412    0.382941    0.177059     0.005394
PD3497   PD        0.588824    0.353529    0.177059     0.005394
PD3498   PD        0.588824    0.382941    0.206471     0.005394
PD3499   PD        0.618235    0.353529    0.206471     0.005394
PD3500   PD        0.618235    0.382941    0.177059     0.005394
PD3502   PD        0.647647    0.382941    0.206471     0.005394
PD3503   PD        0.677059    0.353529    0.206471     0.005394
PD3538   PD        0.235882    0.441765    0.206471     0.005394
PD3539   PD        0.265294    0.412353    0.206471     0.005394
PD3540   PD        0.265294    0.441765    0.177059     0.005394
PD3541   PD        0.294706    0.412353    0.177059     0.005394
PD3542   PD        0.294706    0.441765    0.206471     0.005394
PD3543   PD        0.324118    0.412353    0.206471     0.005394
PD3544   PD        0.324118    0.441765    0.177059     0.005394
PD3545   PD        0.353529    0.412353    0.177059     0.005394
AU3546   AU        0.353529    0.441765    0.206471     0.007504
AU3547   AU        0.382941    0.412353    0.206471     0.007504
PD3548   PD        0.382941    0.441765    0.177059     0.005394
PD3549   PD        0.412353    0.412353    0.177059     0.005394
AU3550   AU        0.412353    0.441765    0.206471     0.007504
AU3551   AU        0.441765    0.412353    0.206471     0.007504
PD3552   PD        0.441765    0.441765    0.177059     0.005394
PD3553   PD        0.471176    0.412353    0.177059     0.005394
AU3554   AU        0.471176    0.441765    0.206471     0.007504
AU3555   AU        0.500588    0.412353    0.206471     0.007504
PD3556   PD        0.500588    0.441765    0.177059     0.005394
PD3557   PD        0.530000    0.412353    0.177059     0.005394
AU3558   AU        0.530000    0.441765    0.206471     0.007504
AU3559   AU        0.559412    0.412353    0.206471     0.007504
PD3560   PD        0.559412    0.441765    0.177059     0.005394
PD3561   PD        0.588824    0.412353    0.177059     0.005394
PD3562   PD        0.588824    0.441765    0.206471     0.005394
PD3563   PD        0.618235    0.412353    0.206471     0.005394
PD3564   PD        0.618235    0.441765    0.177059     0.005394
PD3565   PD        0.647647    0.412353    0.177059     0.005394
PD3566   PD        0.647647    0.441765    0.206471     0.005394
PD3567   PD        0.677059    0.412353    0.206471     0.005394
PD3568   PD        0.677059    0.441765    0.177059     0.005394
PD3570   PD        0.706471    0.441765    0.206471     0.005394
PD3602   PD        0.235882    0.500588    0.206471     0.005394
PD3603   PD        0.265294    0.471176    0.206471     0.005394
PD3604   PD        0.265294    0.500588    0.177059     0.005394
PD3605   PD        0.294706    0.471176    0.177059     0.005394
PD3606   PD        0.294706    0.500588    0.206471     0.005394
AU3607   AU        0.324118    0.471176    0.206471     0.007504
PD3608   PD        0.324118    0.500588    0.177059     0.005394
PD3609   PD        0.353529    0.471176    0.177059     0.005394
AU3610   AU        0.353529    0.500588    0.206471     0.007504
PD3611   PD        0.382941    0.471176    0.206471     0.005394
PD3612   PD        0.382941    0.500588    0.177059     0.005394
PD3613   PD        0.412353    0.471176    0.177059     0.005394
AU3614   AU        0.412353    0.500588    0.206471     0.007504
AU3615   AU        0.441765    0.471176    0.206471     0.007504
PD3616   PD        0.441765    0.500588    0.177059     0.005394
PD3617   PD        0.471176    0.471176    0.177059     0.005394
AU3618   AU        0.471176    0.500588    0.206471     0.007504
AU3619   AU        0.500588    0.471176    0.206471     0.007504
PD3620   PD        0.500588    0.500588    0.177059     0.005394
PD3621   PD        0.530000    0.471176    0.177059     0.005394
AU3622   AU        0.530000    0.500588    0.206471     0.007504
AU3623   AU        0.559412    0.471176    0.206471     0.007504
PD3624   PD        0.559412    0.500588    0.177059     0.005394
AU3625   AU        0.588824    0.471176    0.177059     0.007504
PD3626   PD        0.588824    0.500588    0.206471     0.005394
PD3627   PD        0.618235    0.471176    0.206471     0.005394
PD3628   PD        0.618235    0.500588    0.177059     0.005394
PD3629   PD        0.647647    0.471176    0.177059     0.005394
PD3630   PD        0.647647    0.500588    0.206471     0.005394
PD3631   PD        0.677059    0.471176    0.206471     0.005394
PD3632   PD        0.677059    0.500588    0.177059     0.005394
PD3634   PD        0.706471    0.500588    0.206471     0.005394
PD3667   PD        0.265294    0.530000    0.206471     0.005394
PD3669   PD        0.294706    0.530000    0.177059     0.005394
PD3670   PD        0.294706    0.559412    0.206471     0.005394
PD3671   PD        0.324118    0.530000    0.206471     0.005394
PD3672   PD        0.324118    0.559412    0.177059     0.005394
PD3673   PD        0.353529    0.530000    0.177059     0.005394
PD3674   PD        0.353529    0.559412    0.206471     0.005394
AU3675   AU        0.382941    0.530000    0.206471     0.007504
PD3676   PD        0.382941    0.559412    0.177059     0.005394
PD3677   PD        0.412353    0.530000    0.177059     0.005394
AU3678   AU        0.412353    0.559412    0.206471     0.007504
AU3679   AU        0.441765    0.530000    0.206471     0.007504
AU3680   AU        0.441765    0.559412    0.177059     0.007504
PD3681   PD        0.471176    0.530000    0.177059     0.005394
PD3682   PD        0.471176    0.559412    0.206471     0.005394
AU3683   AU        0.500588    0.530000    0.206471     0.007504
PD3684   PD        0.500588    0.559412    0.177059     0.005394
PD3685   PD        0.530000    0.530000    0.177059     0.005394
PD3686   PD        0.530000    0.559412    0.206471     0.005394
AU3687   AU        0.559412    0.530000    0.206471     0.007504
PD3688   PD        0.559412    0.559412    0.177059     0.005394
PD3689   PD        0.588824    0.530000    0.177059     0.005394
PD3690   PD        0.588824    0.559412    0.206471     0.005394
PD3691   PD        0.618235    0.530000    0.206471     0.005394
PD3692   PD        0.618235    0.559412    0.177059     0.005394
PD3693   PD        0.647647    0.530000    0.177059     0.005394
PD3694   PD        0.647647    0.559412    0.206471     0.005394
PD3695   PD        0.677059    0.530000    0.206471     0.005394
PD3731   PD        0.265294    0.588824    0.206471     0.005394
PD3734   PD        0.294706    0.618235    0.206471     0.005394
PD3735   PD        0.324118    0.588824    0.206471     0.005394
PD3736   PD        0.324118    0.618235    0.177059     0.005394
PD3737   PD        0.353529    0.588824    0.177059     0.005394
PD3738   PD        0.353529    0.618235    0.206471     0.005394
PD3739   PD        0.382941    0.588824    0.206471     0.005394
PD3740   PD        0.382941    0.618235    0.177059     0.005394
PD3741   PD        0.412353    0.588824    0.177059     0.005394
PD3742   PD        0.412353    0.618235    0.206471     0.005394
AU3743   AU        0.441765    0.588824    0.206471     0.007504
PD3744   PD        0.441765    0.618235    0.177059     0.005394
PD3745   PD        0.471176    0.588824    0.177059     0.005394
PD3746   PD        0.471176    0.618235    0.206471     0.005394
PD3747   PD        0.500588    0.588824    0.206471     0.005394
PD3748   PD        0.500588    0.618235    0.177059     0.005394
PD3749   PD        0.530000    0.588824    0.177059     0.005394
PD3750   PD        0.530000    0.618235    0.206471     0.005394
PD3751   PD        0.559412    0.588824    0.206471     0.005394
PD3752   PD        0.559412    0.618235    0.177059     0.005394
PD3753   PD        0.588824    0.588824    0.177059     0.005394
PD3754   PD        0.588824    0.618235    0.206471     0.005394
PD3755   PD        0.618235    0.588824    0.206471     0.005394
PD3756   PD        0.618235    0.618235    0.177059     0.005394
PD3758   PD        0.647647    0.618235    0.206471     0.005394
PD3759   PD        0.677059    0.588824    0.206471     0.005394
PD3799   PD        0.324118    0.647647    0.206471     0.005394
PD3802   PD        0.353529    0.677059    0.206471     0.005394
PD3803   PD        0.382941    0.647647    0.206471     0.005394
PD3805   PD        0.412353    0.647647    0.177059     0.005394
PD3806   PD        0.412353    0.677059    0.206471     0.005394
PD3807   PD        0.441765    0.647647    0.206471     0.005394
PD3808   PD        0.441765    0.677059    0.177059     0.005394
PD3809   PD        0.471176    0.647647    0.177059     0.005394
PD3810   PD        0.471176    0.677059    0.206471     0.005394
PD3811   PD        0.500588    0.647647    0.206471     0.005394
PD3812   PD        0.500588    0.677059    0.177059     0.005394
PD3813   PD        0.530000    0.647647    0.177059     0.005394
PD3814   PD        0.530000    0.677059    0.206471     0.005394
PD3815   PD        0.559412    0.647647    0.206471     0.005394
PD3818   PD        0.588824    0.677059    0.206471     0.005394
PD3819   PD        0.618235    0.647647    0.206471     0.005394
PD3871   PD        0.441765    0.706471    0.206471     0.005394
PD3875   PD        0.500588    0.706471    0.206471     0.005394
PD4314   PD        0.353529    0.206471    0.265294     0.005394
PD4318   PD        0.412353    0.206471    0.265294     0.005394
PD4319   PD        0.441765    0.177059    0.265294     0.005394
PD4320   PD        0.441765    0.206471    0.235882     0.005394
PD4322   PD        0.471176    0.206471    0.265294     0.005394
PD4323   PD        0.500588    0.177059    0.265294     0.005394
PD4324   PD        0.500588    0.206471    0.235882     0.005394
PD4326   PD        0.530000    0.206471    0.265294     0.005394
PD4330   PD        0.588824    0.206471    0.265294     0.005394
PD4374   PD        0.294706    0.265294    0.265294     0.005394
PD4375   PD        0.324118    0.235882    0.265294     0.005394
PD4376   PD        0.324118    0.265294    0.235882     0.005394
PD4377   PD        0.353529    0.235882    0.235882     0.005394
PD4378   PD        0.353529    0.265294    0.265294     0.005394
PD4379   PD        0.382941    0.235882    0.265294     0.005394
PD4380   PD        0.382941    0.265294    0.235882     0.005394
PD4381   PD        0.412353    0.235882    0.235882     0.005394
PD4382   PD        0.412353    0.265294    0.265294     0.005394
PD4383   PD        0.441765    0.235882    0.265294     0.005394
AU4384   AU        0.441765    0.265294    0.235882     0.007504
PD4385   PD        0.471176    0.235882    0.235882     0.005394
PD4386   PD        0.471176    0.265294    0.265294     0.005394
PD4387   PD        0.500588    0.235882    0.265294     0.005394
PD4388   PD        0.500588    0.265294    0.235882     0.005394
PD4389   PD        0.530000    0.235882    0.235882     0.005394
PD4390   PD        0.530000    0.265294    0.265294     0.005394
PD4391   PD        0.559412    0.235882    0.265294     0.005394
PD4392   PD        0.559412    0.265294    0.235882     0.005394
PD4393   PD        0.588824    0.235882    0.235882     0.005394
PD4394   PD        0.588824    0.265294    0.265294     0.005394
PD4395   PD        0.618235    0.235882    0.265294     0.005394
PD4396   PD        0.618235    0.265294    0.235882     0.005394
PD4398   PD        0.647647    0.265294    0.265294     0.005394
PD4434   PD        0.235882    0.324118    0.265294     0.005394
PD4435   PD        0.265294    0.294706    0.265294     0.005394
PD4436   PD        0.265294    0.324118    0.235882     0.005394
PD4437   PD        0.294706    0.294706    0.235882     0.005394
PD4438   PD        0.294706    0.324118    0.265294     0.005394
PD4439   PD        0.324118    0.294706    0.265294     0.005394
PD4440   PD        0.324118    0.324118    0.235882     0.005394
PD4441   PD        0.353529    0.294706    0.235882     0.005394
AU4442   AU        0.353529    0.324118    0.265294     0.007504
PD4443   PD        0.382941    0.294706    0.265294     0.005394
PD4444   PD        0.382941    0.324118    0.235882     0.005394
PD4445   PD        0.412353    0.294706    0.235882     0.005394
AU4446   AU        0.412353    0.324118    0.265294     0.007504
AU4447   AU        0.441765    0.294706    0.265294     0.007504
AU4448   AU        0.441765    0.324118    0.235882     0.007504
AU4449   AU        0.471176    0.294706    0.235882     0.007504
AU4450   AU        0.471176    0.324118    0.265294     0.007504
AU4451   AU        0.500588    0.294706    0.265294     0.007504
AU4452   AU        0.500588    0.324118    0.235882     0.007504
PD4453   PD        0.530000    0.294706    0.235882     0.005394
AU4454   AU        0.530000    0.324118    0.265294     0.007504
AU4455   AU        0.559412    0.294706    0.265294     0.007504
PD4456   PD        0.559412    0.324118    0.235882     0.005394
PD4457   PD        0.588824    0.294706    0.235882     0.005394
AU4458   AU        0.588824    0.324118    0.265294     0.007504
PD4459   PD        0.618235    0.294706    0.265294     0.005394
PD4460   PD        0.618235    0.324118    0.235882     0.005394
PD4461   PD        0.647647    0.294706    0.235882     0.005394
AU4462   AU        0.647647    0.324118    0.265294     0.007504
PD4463   PD        0.677059    0.294706    0.265294     0.005394
PD4464   PD        0.677059    0.324118    0.235882     0.005394
PD4466   PD        0.706471    0.324118    0.265294     0.005394
PD4495   PD        0.206471    0.353529    0.265294     0.005394
PD4497   PD        0.235882    0.353529    0.235882     0.005394
PD4498   PD        0.235882    0.382941    0.265294     0.005394
PD4499   PD        0.265294    0.353529    0.265294     0.005394
PD4500   PD        0.265294    0.382941    0.235882     0.005394
PD4501   PD        0.294706    0.353529    0.235882     0.005394
AU4502   AU        0.294706    0.382941    0.265294     0.007504
AU4503   AU        0.324118    0.353529    0.265294     0.007504
PD4504   PD        0.324118    0.382941    0.235882     0.005394
PD4505   PD        0.353529    0.353529    0.235882     0.005394
AU4506   AU        0.353529    0.382941    0.265294     0.007504
AU4507   AU        0.382941    0.353529    0.265294     0.007504
AU4508   AU        0.382941    0.382941    0.235882     0.007504
AU4509   AU        0.412353    0.353529    0.235882     0.007504
AU4510   AU        0.412353    0.382941    0.265294     0.007504
AU4511   AU        0.441765    0.353529    0.265294     0.007504
AU4512   AU        0.441765    0.382941    0.235882     0.007504
AU4513   AU        0.471176    0.353529    0.235882     0.007504
AU4514   AU        0.471176    0.382941    0.265294     0.007504
AU4515   AU        0.500588    0.353529    0.265294     0.007504
AU4516   AU        0.500588    0.382941    0.235882     0.007504
AU4517   AU        0.530000    0.353529    0.235882     0.007504
AU4518   AU        0.530000    0.382941    0.265294     0.007504
AU4519   AU        0.559412    0.353529    0.265294     0.007504
AU4520   AU        0.559412    0.382941    0.235882     0.007504
PD4521   PD        0.588824    0.353529    0.235882     0.005394
AU4522   AU        0.588824    0.382941    0.265294     0.007504
AU4523   AU        0.618235    0.353529    0.265294     0.007504
PD4524   PD        0.618235    0.382941    0.235882     0.005394
PD4525   PD        0.647647    0.353529    0.235882     0.005394
PD4526   PD        0.647647    0.382941    0.265294     0.005394
PD4527   PD        0.677059    0.353529    0.265294     0.005394
PD4528   PD        0.677059    0.382941    0.235882     0.005394
PD4529   PD        0.706471    0.353529    0.235882     0.005394
PD4530   PD        0.706471    0.382941    0.265294     0.005394
PD4531   PD        0.735882    0.353529    0.265294     0.005394
PD4558   PD        0.177059    0.441765    0.265294     0.005394
PD4559   PD        0.206471    0.412353    0.265294     0.005394
PD4560   PD        0.206471    0.441765    0.235882     0.005394
PD4561   PD        0.235882    0.412353    0.235882     0.005394
AU4562   AU        0.235882    0.441765    0.265294     0.007504
PD4563   PD        0.265294    0.412353    0.265294     0.005394
PD4564   PD        0.265294    0.441765    0.235882     0.005394
PD4565   PD        0.294706    0.412353    0.235882     0.005394
AU4566   AU        0.294706    0.441765    0.265294     0.007504
AU4567   AU        0.324118    0.412353    0.265294     0.007504
PD4568   PD        0.324118    0.441765    0.235882     0.005394
AU4569   AU        0.353529    0.412353    0.235882     0.007504
AU4570   AU        0.353529    0.441765    0.265294     0.007504
AU4571   AU        0.382941    0.412353    0.265294     0.007504
AU4572   AU        0.382941    0.441765    0.235882     0.007504
AU4573   AU        0.412353    0.412353    0.235882     0.007504
AU4574   AU        0.412353    0.441765    0.265294     0.007504
AU4575   AU        0.441765    0.412353    0.265294     0.007504
AU4576   AU        0.441765    0.441765    0.235882     0.007504
AU4577   AU        0.471176    0.412353    0.235882     0.007504
AU4578   AU        0.471176    0.441765    0.265294     0.007504
AU4579   AU        0.500588    0.412353    0.265294     0.007504
AU4580   AU        0.500588    0.441765    0.235882     0.007504
AU4581   AU        0.530000    0.412353    0.235882     0.007504
AU4582   AU        0.530000    0.441765    0.265294     0.007504
AU4583   AU        0.559412    0.412353    0.265294     0.007504
AU4584   AU        0.559412    0.441765    0.235882     0.007504
AU4585   AU        0.588824    0.412353    0.235882     0.007504
AU4586   AU        0.588824    0.441765    0.265294     0.007504
AU4587   AU        0.618235    0.412353    0.265294     0.007504
PD4588   PD        0.618235    0.441765    0.235882     0.005394
PD4589   PD        0.647647    0.412353    0.235882     0.005394
AU4590   AU        0.647647    0.441765    0.265294     0.007504
PD4591   PD        0.677059    0.412353    0.265294     0.005394
PD4592   PD        0.677059    0.441765    0.235882     0.005394
PD4593   PD        0.706471    0.412353    0.235882     0.005394
PD4594   PD        0.706471    0.441765    0.265294     0.005394
PD4595   PD        0.735882    0.412353    0.265294     0.005394
PD4596   PD        0.735882    0.441765    0.235882     0.005394
PD4598   PD        0.765294    0.441765    0.265294     0.005394
PD4622   PD        0.177059    0.500588    0.265294     0.005394
PD4623   PD        0.206471    0.471176    0.265294     0.005394
PD4624   PD        0.206471    0.500588    0.235882     0.005394
PD4625   PD        0.235882    0.471176    0.235882     0.005394
PD4626   PD        0.235882    0.500588    0.265294     0.005394
AU4627   AU        0.265294    0.471176    0.265294     0.007504
PD4628   PD        0.265294    0.500588    0.235882     0.005394
PD4629   PD        0.294706    0.471176    0.235882     0.005394
AU4630   AU        0.294706    0.500588    0.265294     0.007504
AU4631   AU        0.324118    0.471176    0.265294     0.007504
PD4632   PD        0.324118    0.500588    0.235882     0.005394
AU4633   AU        0.353529    0.471176    0.235882     0.007504
AU4634   AU        0.353529    0.500588    0.265294     0.007504
AU4635   AU        0.382941    0.471176    0.265294     0.007504
AU4636   AU        0.382941    0.500588    0.235882     0.007504
AU4637   AU        0.412353    0.471176    0.235882     0.007504
AU4638   AU        0.412353    0.500588    0.265294     0.007504
AU4639   AU        0.441765    0.471176    0.265294     0.007504
AU4640   AU        0.441765    0.500588    0.235882     0.007504
AU4641   AU        0.471176    0.471176    0.235882     0.007504
AU4642   AU        0.471176    0.500588    0.265294     0.007504
AU4643   AU        0.500588    0.471176    0.265294     0.007504
AU4644   AU        0.500588    0.500588    0.235882     0.007504
AU4645   AU        0.530000    0.471176    0.235882     0.007504
AU4646   AU        0.530000    0.500588    0.265294     0.007504
AU4647   AU        0.559412    0.471176    0.265294     0.007504
AU4648   AU        0.559412    0.500588    0.235882     0.007504
AU4649   AU        0.588824    0.471176    0.235882     0.007504
AU4650   AU        0.588824    0.500588    0.265294     0.007504
AU4651   AU        0.618235    0.471176    0.265294     0.007504
AU4652   AU        0.618235    0.500588    0.235882     0.007504
AU4653   AU        0.647647    0.471176    0.235882     0.007504
AU4654   AU        0.647647    0.500588    0.265294     0.007504
PD4655   PD        0.677059    0.471176    0.265294     0.005394
PD4656   PD        0.677059    0.500588    0.235882     0.005394
PD4657   PD        0.706471    0.471176    0.235882     0.005394
PD4658   PD        0.706471    0.500588    0.265294     0.005394
PD4659   PD        0.735882    0.471176    0.265294     0.005394
PD4660   PD        0.735882    0.500588    0.235882     0.005394
PD4662   PD        0.765294    0.500588    0.265294     0.005394
PD4687   PD        0.206471    0.530000    0.265294     0.005394
PD4689   PD        0.235882    0.530000    0.235882     0.005394
PD4690   PD        0.235882    0.559412    0.265294     0.005394
AU4691   AU        0.265294    0.530000    0.265294     0.007504
PD4692   PD        0.265294    0.559412    0.235882     0.005394
PD4693   PD        0.294706    0.530000    0.235882     0.005394
PD4694   PD        0.294706    0.559412    0.265294     0.005394
AU4695   AU        0.324118    0.530000    0.265294     0.007504
PD4696   PD        0.324118    0.559412    0.235882     0.005394
PD4697   PD        0.353529    0.530000    0.235882     0.005394
AU4698   AU        0.353529    0.559412    0.265294     0.007504
AU4699   AU        0.382941    0.530000    0.265294     0.007504
AU4700   AU        0.382941    0.559412    0.235882     0.007504
AU4701   AU        0.412353    0.530000    0.235882     0.007504
AU4702   AU        0.412353    0.559412    0.265294     0.007504
AU4703   AU        0.441765    0.530000    0.265294     0.007504
AU4704   AU        0.441765    0.559412    0.235882     0.007504
AU4705   AU        0.471176    0.530000    0.235882     0.007504
AU4706   AU        0.471176    0.559412    0.265294     0.007504
AU4707   AU        0.500588    0.530000    0.265294     0.007504
AU4708   AU        0.500588    0.559412    0.235882     0.007504
AU4709   AU        0.530000    0.530000    0.235882     0.007504
AU4710   AU        0.530000    0.559412    0.265294     0.007504
AU4711   AU        0.559412    0.530000    0.265294     0.007504
AU4712   AU        0.559412    0.559412    0.235882     0.007504
AU4713   AU        0.588824    0.530000    0.235882     0.007504
AU4714   AU        0.588824    0.559412    0.265294     0.007504
AU4715   AU        0.618235    0.530000    0.265294     0.007504
PD4716   PD        0.618235    0.559412    0.235882     0.005394
PD4717   PD        0.647647    0.530000    0.235882     0.005394
PD4718   PD        0.647647    0.559412    0.265294     0.005394
AU4719   AU        0.677059    0.530000    0.265294     0.007504
PD4720   PD        0.677059    0.559412    0.235882     0.005394
PD4721   PD        0.706471    0.530000    0.235882     0.005394
PD4722   PD        0.706471    0.559412    0.265294     0.005394
PD4723   PD        0.735882    0.530000    0.265294     0.005394
PD4751   PD        0.206471    0.588824    0.265294     0.005394
PD4753   PD        0.235882    0.588824    0.235882     0.005394
PD4754   PD        0.235882    0.618235    0.265294     0.005394
PD4755   PD        0.265294    0.588824    0.265294     0.005394
PD4756   PD        0.265294    0.618235    0.235882     0.005394
PD4757   PD        0.294706    0.588824    0.235882     0.005394
PD4758   PD        0.294706    0.618235    0.265294     0.005394
AU4759   AU        0.324118    0.588824    0.265294     0.007504
PD4760   PD        0.324118    0.618235    0.235882     0.005394
AU4761   AU        0.353529    0.588824    0.235882     0.007504
AU4762   AU        0.353529    0.618235    0.265294     0.007504
AU4763   AU        0.382941    0.588824    0.265294     0.007504
PD4764   PD        0.382941    0.618235    0.235882     0.005394
AU4765   AU        0.412353    0.588824    0.235882     0.007504
AU4766   AU        0.412353    0.618235    0.265294     0.007504
AU4767   AU        0.441765    0.588824    0.265294     0.007504
PD4768   PD        0.441765    0.618235    0.235882     0.005394
AU4769   AU        0.471176    0.588824    0.235882     0.007504
AU4770   AU        0.471176    0.618235    0.265294     0.007504
AU4771   AU        0.500588    0.588824    0.265294     0.007504
PD4772   PD        0.500588    0.618235    0.235882     0.005394
PD4773   PD        0.530000    0.588824    0.235882     0.005394
AU4774   AU        0.530000    0.618235    0.265294     0.007504
AU4775   AU        0.559412    0.588824    0.265294     0.007504
AU4776   AU        0.559412    0.618235    0.235882     0.007504
AU4777   AU        0.588824    0.588824    0.235882     0.007504
AU4778   AU        0.588824    0.618235    0.265294     0.007504
AU4779   AU        0.618235    0.588824    0.265294     0.007504
PD4780   PD        0.618235    0.618235    0.235882     0.005394
PD4781   PD        0.647647    0.588824    0.235882     0.005394
AU4782   AU        0.647647    0.618235    0.265294     0.007504
PD4783   PD        0.677059    0.588824    0.265294     0.005394
PD4784   PD        0.677059    0.618235    0.235882     0.005394
PD4785   PD        0.706471    0.588824    0.235882     0.005394
PD4786   PD        0.706471    0.618235    0.265294     0.005394
PD4787   PD        0.735882    0.588824    0.265294     0.005394
PD4819   PD        0.265294    0.647647    0.265294     0.005394
PD4821   PD        0.294706    0.647647    0.235882     0.005394
PD4822   PD        0.294706    0.677059    0.265294     0.005394
PD4823   PD        0.324118    0.647647    0.265294     0.005394
PD4824   PD        0.324118    0.677059    0.235882     0.005394
PD4825   PD        0.353529    0.647647    0.235882     0.005394
PD4826   PD        0.353529    0.677059    0.265294     0.005394
AU4827   AU        0.382941    0.647647    0.265294     0.007504
PD4828   PD        0.382941    0.677059    0.235882     0.005394
PD4829   PD        0.412353    0.647647    0.235882     0.005394
PD4830   PD        0.412353    0.677059    0.265294     0.005394
AU4831   AU        0.441765    0.647647    0.265294     0.007504
PD4832   PD        0.441765    0.677059    0.235882     0.005394
PD4833   PD        0.471176    0.647647    0.235882     0.005394
AU4834   AU        0.471176    0.677059    0.265294     0.007504
PD4835   PD        0.500588    0.647647    0.265294     0.005394
PD4836   PD        0.500588    0.677059    0.235882     0.005394
PD4837   PD        0.530000    0.647647    0.235882     0.005394
PD4838   PD        0.530000    0.677059    0.265294     0.005394
AU4839   AU        0.559412    0.647647    0.265294     0.007504
PD4840   PD        0.559412    0.677059    0.235882     0.005394
PD4841   PD        0.588824    0.647647    0.235882     0.005394
PD4842   PD        0.588824    0.677059    0.265294     0.005394
PD4843   PD        0.618235    0.647647    0.265294     0.005394
PD4844   PD        0.618235    0.677059    0.235882     0.005394
PD4845   PD        0.647647    0.647647    0.235882     0.005394
PD4846   PD        0.647647    0.677059    0.265294     0.005394
PD4847   PD        0.677059    0.647647    0.265294     0.005394
PD4887   PD        0.324118    0.706471    0.265294     0.005394
PD4889   PD        0.353529    0.706471    0.235882     0.005394
PD4890   PD        0.353529    0.735882    0.265294     0.005394
PD4891   PD        0.382941    0.706471    0.265294     0.005394
PD4893   PD        0.412353    0.706471    0.235882     0.005394
PD4894   PD        0.412353    0.735882    0.265294     0.005394
PD4895   PD        0.441765    0.706471    0.265294     0.005394
PD4896   PD        0.441765    0.735882    0.235882     0.005394
PD4897   PD        0.471176    0.706471    0.235882     0.005394
PD4898   PD        0.471176    0.735882    0.265294     0.005394
PD4899   PD        0.500588    0.706471    0.265294     0.005394
PD4900   PD        0.500588    0.735882    0.235882     0.005394
PD4901   PD        0.530000    0.706471    0.235882     0.005394
PD4902   PD        0.530000    0.735882    0.265294     0.005394
PD4903   PD        0.559412    0.706471    0.265294     0.005394
PD4905   PD        0.588824    0.706471    0.235882     0.005394
PD4906   PD        0.588824    0.735882    0.265294     0.005394
PD4907   PD        0.618235    0.706471    0.265294     0.005394
PD4959   PD        0.441765    0.765294    0.265294     0.005394
PD4963   PD        0.500588    0.765294    0.265294     0.005394
PD5278   PD        0.412353    0.147647    0.324118     0.005394
PD5282   PD        0.471176    0.147647    0.324118     0.005394
PD5286   PD        0.530000    0.147647    0.324118     0.005394
PD5334   PD        0.294706    0.206471    0.324118     0.005394
PD5335   PD        0.324118    0.177059    0.324118     0.005394
PD5336   PD        0.324118    0.206471    0.294706     0.005394
PD5338   PD        0.353529    0.206471    0.324118     0.005394
PD5339   PD        0.382941    0.177059    0.324118     0.005394
PD5340   PD        0.382941    0.206471    0.294706     0.005394
PD5341   PD        0.412353    0.177059    0.294706     0.005394
PD5342   PD        0.412353    0.206471    0.324118     0.005394
PD5343   PD        0.441765    0.177059    0.324118     0.005394
PD5344   PD        0.441765    0.206471    0.294706     0.005394
PD5345   PD        0.471176    0.177059    0.294706     0.005394
PD5346   PD        0.471176    0.206471    0.324118     0.005394
PD5347   PD        0.500588    0.177059    0.324118     0.005394
PD5348   PD        0.500588    0.206471    0.294706     0.005394
PD5349   PD        0.530000    0.177059    0.294706     0.005394
PD5350   PD        0.530000    0.206471    0.324118     0.005394
PD5351   PD        0.559412    0.177059    0.324118     0.005394
PD5352   PD        0.559412    0.206471    0.294706     0.005394
PD5354   PD        0.588824    0.206471    0.324118     0.005394
PD5355   PD        0.618235    0.177059    0.324118     0.005394
PD5356   PD        0.618235    0.206471    0.294706     0.005394
PD5358   PD        0.647647    0.206471    0.324118     0.005394
PD5394   PD        0.235882    0.265294    0.324118     0.005394
PD5395   PD        0.265294    0.235882    0.324118     0.005394
PD5396   PD        0.265294    0.265294    0.294706     0.005394
PD5397   PD        0.294706    0.235882    0.294706     0.005394
PD5398   PD        0.294706    0.265294    0.324118     0.005394
PD5399   PD        0.324118    0.235882    0.324118     0.005394
PD5400   PD        0.324118    0.265294    0.294706     0.005394
PD5401   PD        0.353529    0.235882    0.294706     0.005394
AU5402   AU        0.353529    0.265294    0.324118     0.007504
PD5403   PD        0.382941    0.235882    0.324118     0.005394
AU5404   AU        0.382941    0.265294    0.294706     0.007504
PD5405   PD        0.412353    0.235882    0.294706     0.005394
AU5406   AU        0.412353    0.265294    0.324118     0.007504
PD5407   PD        0.441765    0.235882    0.324118     0.005394
PD5408   PD        0.441765    0.265294    0.294706     0.005394
PD5409   PD        0.471176    0.235882    0.294706     0.005394
AU5410   AU        0.471176    0.265294    0.324118     0.007504
AU5411   AU        0.500588    0.235882    0.324118     0.007504
AU5412   AU        0.500588    0.265294    0.294706     0.007504
PD5413   PD        0.530000    0.235882    0.294706     0.005394
AU5414   AU        0.530000    0.265294    0.324118     0.007504
AU5415   AU        0.559412    0.235882    0.324118     0.007504
PD5416   PD        0.559412    0.265294    0.294706     0.005394
PD5417   PD        0.588824    0.235882    0.294706     0.005394
AU5418   AU        0.588824    0.265294    0.324118     0.007504
PD5419   PD        0.618235    0.235882    0.324118     0.005394
PD5420   PD        0.618235    0.265294    0.294706     0.005394
PD5421   PD        0.647647    0.235882    0.294706     0.005394
PD5422   PD        0.647647    0.265294    0.324118     0.005394
PD5423   PD        0.677059    0.235882    0.324118     0.005394
PD5424   PD        0.677059    0.265294    0.294706     0.005394
PD5426   PD        0.706471    0.265294    0.324118     0.005394
PD5454   PD        0.177059    0.324118    0.324118     0.005394
PD5455   PD        0.206471    0.294706    0.324118     0.005394
PD5456   PD        0.206471    0.324118    0.294706     0.005394
PD5457   PD        0.235882    0.294706    0.294706     0.005394
PD5458   PD        0.235882    0.324118    0.324118     0.005394
PD5459   PD        0.265294    0.294706    0.324118     0.005394
PD5460   PD        0.265294    0.324118    0.294706     0.005394
PD5461   PD        0.294706    0.294706    0.294706     0.005394
AU5462   AU        0.294706    0.324118    0.324118     0.007504
AU5463   AU        0.324118    0.294706    0.324118     0.007504
PD5464   PD        0.324118    0.324118    0.294706     0.005394
AU5465   AU        0.353529    0.294706    0.294706     0.007504
AU5466   AU        0.353529    0.324118    0.324118     0.007504
AU5467   AU        0.382941    0.294706    0.324118     0.007504
AU5468   AU        0.382941    0.324118    0.294706     0.007504
AU5469   AU        0.412353    0.294706    0.294706     0.007504
AU5470   AU        0.412353    0.324118    0.324118     0.007504
AU5471   AU        0.441765    0.294706    0.324118     0.007504
AU5472   AU        0.441765    0.324118    0.294706     0.007504
AU5473   AU        0.471176    0.294706    0.294706     0.007504
AU5474   AU        0.471176    0.324118    0.324118     0.007504
AU5475   AU        0.500588    0.294706    0.324118     0.007504
AU5476   AU        0.500588    0.324118    0.294706     0.007504
AU5477   AU        0.530000    0.294706    0.294706     0.007504
AU5478   AU        0.530000    0.324118    0.324118     0.007504
AU5479   AU        0.559412    0.294706    0.324118     0.007504
AU5480   AU        0.559412    0.324118    0.294706     0.007504
AU5481   AU        0.588824    0.294706    0.294706     0.007504
AU5482   AU        0.588824    0.324118    0.324118     0.007504
PD5483   PD        0.618235    0.294706    0.324118     0.005394
AU5484   AU        0.618235    0.324118    0.294706     0.007504
AU5485   AU        0.647647    0.294706    0.294706     0.007504
PD5486   PD        0.647647    0.324118    0.324118     0.005394
PD5487   PD        0.677059    0.294706    0.324118     0.005394
PD5488   PD        0.677059    0.324118    0.294706     0.005394
PD5489   PD        0.706471    0.294706    0.294706     0.005394
PD5490   PD        0.706471    0.324118    0.324118     0.005394
PD5491   PD        0.735882    0.294706    0.324118     0.005394
PD5492   PD        0.735882    0.324118    0.294706     0.005394
PD5494   PD        0.765294    0.324118    0.324118     0.005394
PD5518   PD        0.177059    0.382941    0.324118     0.005394
PD5519   PD        0.206471    0.353529    0.324118     0.005394
PD5520   PD        0.206471    0.382941    0.294706     0.005394
PD5521   PD        0.235882    0.353529    0.294706     0.005394
PD5522   PD        0.235882    0.382941    0.324118     0.005394
PD5523   PD        0.265294    0.353529    0.324118     0.005394
PD5524   PD        0.265294    0.382941    0.294706     0.005394
AU5525   AU        0.294706    0.353529    0.294706     0.007504
AU5526   AU        0.294706    0.382941    0.324118     0.007504
AU5527   AU        0.324118    0.353529    0.324118     0.007504
AU5528   AU        0.324118    0.382941    0.294706     0.007504
AU5529   AU        0.353529    0.353529    0.294706     0.007504
AU5530   AU        0.353529    0.382941    0.324118     0.007504
AU5531   AU        0.382941    0.353529    0.324118     0.007504
AU5532   AU        0.382941    0.382941    0.294706     0.007504
AU5533   AU        0.412353    0.353529    0.294706     0.007504
AU5534   AU        0.412353    0.382941    0.324118     0.007504
AU5535   AU        0.441765    0.353529    0.324118     0.007504
AU5536   AU        0.441765    0.382941    0.294706     0.007504
AU5537   AU        0.471176    0.353529    0.294706     0.007504
AU5538   AU        0.471176    0.382941    0.324118     0.007504
AU5539   AU        0.500588    0.353529    0.324118     0.007504
AU5540   AU        0.500588    0.382941    0.294706     0.007504
AU5541   AU        0.530000    0.353529    0.294706     0.007504
AU5542   AU        0.530000    0.382941    0.324118     0.007504
AU5543   AU        0.559412    0.353529    0.324118     0.007504
AU5544   AU        0.559412    0.382941    0.294706     0.007504
AU5545   AU        0.588824    0.353529    0.294706     0.007504
AU5546   AU        0.588824    0.382941    0.324118     0.007504
AU5547   AU        0.618235    0.353529    0.324118     0.007504
PD5548   PD        0.618235    0.382941    0.294706     0.005394
PD5549   PD        0.647647    0.353529    0.294706     0.005394
AU5550   AU        0.647647    0.382941    0.324118     0.007504
PD5551   PD        0.677059    0.353529    0.324118     0.005394
AU5552   AU        0.677059    0.382941    0.294706     0.007504
PD5553   PD        0.706471    0.353529    0.294706     0.005394
AU5554   AU        0.706471    0.382941    0.324118     0.007504
PD5555   PD        0.735882    0.353529    0.324118     0.005394
PD5556   PD        0.735882    0.382941    0.294706     0.005394
PD5558   PD        0.765294    0.382941    0.324118     0.005394
PD5579   PD        0.147647    0.412353    0.324118     0.005394
PD5581   PD        0.177059    0.412353    0.294706     0.005394
PD5582   PD        0.177059    0.441765    0.324118     0.005394
PD5583   PD        0.206471    0.412353    0.324118     0.005394
PD5584   PD        0.206471    0.441765    0.294706     0.005394
PD5585   PD        0.235882    0.412353    0.294706     0.005394
PD5586   PD        0.235882    0.441765    0.324118     0.005394
AU5587   AU        0.265294    0.412353    0.324118     0.007504
AU5588   AU        0.265294    0.441765    0.294706     0.007504
AU5589   AU        0.294706    0.412353    0.294706     0.007504
AU5590   AU        0.294706    0.441765    0.324118     0.007504
AU5591   AU        0.324118    0.412353    0.324118     0.007504
AU5592   AU        0.324118    0.441765    0.294706     0.007504
AU5593   AU        0.353529    0.412353    0.294706     0.007504
AU5594   AU        0.353529    0.441765    0.324118     0.007504
AU5595   AU        0.382941    0.412353    0.324118     0.007504
AU5596   AU        0.382941    0.441765    0.294706     0.007504
AU5597   AU        0.412353    0.412353    0.294706     0.007504
AU5598   AU        0.412353    0.441765    0.324118     0.007504
AU5599   AU        0.441765    0.412353    0.324118     0.007504
AU5600   AU        0.441765    0.441765    0.294706     0.007504
AU5601   AU        0.471176    0.412353    0.294706     0.007504
AU5602   AU        0.471176    0.441765    0.324118     0.007504
AU5603   AU        0.500588    0.412353    0.324118     0.007504
AU5604   AU        0.500588    0.441765    0.294706     0.007504
AU5605   AU        0.530000    0.412353    0.294706     0.007504
AU5606   AU        0.530000    0.441765    0.324118     0.007504
AU5607   AU        0.559412    0.412353    0.324118     0.007504
AU5608   AU        0.559412    0.441765    0.294706     0.007504
AU5609   AU        0.588824    0.412353    0.294706     0.007504
AU5610   AU        0.588824    0.441765    0.324118     0.007504
AU5611   AU        0.618235    0.412353    0.324118     0.007504
AU5612   AU        0.618235    0.441765    0.294706     0.007504
AU5613   AU        0.647647    0.412353    0.294706     0.007504
AU5614   AU        0.647647    0.441765    0.324118     0.007504
AU5615   AU        0.677059    0.412353    0.324118     0.007504
AU5616   AU        0.677059    0.441765    0.294706     0.007504
PD5617   PD        0.706471    0.412353    0.294706     0.005394
PD5618   PD        0.706471    0.441765    0.324118     0.005394
PD5619   PD        0.735882    0.412353    0.324118     0.005394
PD5620   PD        0.735882    0.441765    0.294706     0.005394
PD5621   PD        0.765294    0.412353    0.294706     0.005394
PD5622   PD        0.765294    0.441765    0.324118     0.005394
PD5623   PD        0.794706    0.412353    0.324118     0.005394
PD5643   PD        0.147647    0.471176    0.324118     0.005394
PD5645   PD        0.177059    0.471176    0.294706     0.005394
PD5646   PD        0.177059    0.500588    0.324118     0.005394
PD5647   PD        0.206471    0.471176    0.324118     0.005394
PD5648   PD        0.206471    0.500588    0.294706     0.005394
PD5649   PD        0.235882    0.471176    0.294706     0.005394
PD5650   PD        0.235882    0.500588    0.324118     0.005394
AU5651   AU        0.265294    0.471176    0.324118     0.007504
AU5652   AU        0.265294    0.500588    0.294706     0.007504
AU5653   AU        0.294706    0.471176    0.294706     0.007504
AU5654   AU        0.294706    0.500588    0.324118     0.007504
AU5655   AU        0.324118    0.471176    0.324118     0.007504
AU5656   AU        0.324118    0.500588    0.294706     0.007504
AU5657   AU        0.353529    0.471176    0.294706     0.007504
AU5658   AU        0.353529    0.500588    0.324118     0.007504
AU5659   AU        0.382941    0.471176    0.324118     0.007504
AU5660   AU        0.382941    0.500588    0.294706     0.007504
AU5661   AU        0.412353    0.471176    0.294706     0.007504
AU5662   AU        0.412353    0.500588    0.324118     0.007504
AU5663   AU        0.441765    0.471176    0.324118     0.007504
AU5664   AU        0.441765    0.500588    0.294706     0.007504
AU5665   AU        0.471176    0.471176    0.294706     0.007504
AU5666   AU        0.471176    0.500588    0.324118     0.007504
AU5667   AU        0.500588    0.471176    0.324118     0.007504
AU5668   AU        0.500588    0.500588    0.294706     0.007504
AU5669   AU        0.530000    0.471176    0.294706     0.007504
AU5670   AU        0.530000    0.500588    0.324118     0.007504
AU5671   AU        0.559412    0.471176    0.324118     0.007504
AU5672   AU        0.559412    0.500588    0.294706     0.007504
AU5673   AU        0.588824    0.471176    0.294706     0.007504
AU5674   AU        0.588824    0.500588    0.324118     0.007504
AU5675   AU        0.618235    0.471176    0.324118     0.007504
AU5676   AU        0.618235    0.500588    0.294706     0.007504
AU5677   AU        0.647647    0.471176    0.294706     0.007504
AU5678   AU        0.647647    0.500588    0.324118     0.007504
AU5679   AU        0.677059    0.471176    0.324118     0.007504
AU5680   AU        0.677059    0.500588    0.294706     0.007504
AU5681   AU        0.706471    0.471176    0.294706     0.007504
AU5682   AU        0.706471    0.500588    0.324118     0.007504
PD5683   PD        0.735882    0.471176    0.324118     0.005394
PD5684   PD        0.735882    0.500588    0.294706     0.005394
PD5685   PD        0.765294    0.471176    0.294706     0.005394
PD5686   PD        0.765294    0.500588    0.324118     0.005394
PD5687   PD        0.794706    0.471176    0.324118     0.005394
PD5707   PD        0.147647    0.530000    0.324118     0.005394
PD5709   PD        0.177059    0.530000    0.294706     0.005394
PD5710   PD        0.177059    0.559412    0.324118     0.005394
PD5711   PD        0.206471    0.530000    0.324118     0.005394
PD5712   PD        0.206471    0.559412    0.294706     0.005394
PD5713   PD        0.235882    0.530000    0.294706     0.005394
PD5714   PD        0.235882    0.559412    0.324118     0.005394
AU5715   AU        0.265294    0.530000    0.324118     0.007504
AU5716   AU        0.265294    0.559412    0.294706     0.007504
AU5717   AU        0.294706    0.530000    0.294706     0.007504
AU5718   AU        0.294706    0.559412    0.324118     0.007504
AU5719   AU        0.324118    0.530000    0.324118     0.007504
AU5720   AU        0.324118    0.559412    0.294706     0.007504
AU5721   AU        0.353529    0.530000    0.294706     0.007504
AU5722   AU        0.353529    0.559412    0.324118     0.007504
AU5723   AU        0.382941    0.530000    0.324118     0.007504
AU5724   AU        0.382941    0.559412    0.294706     0.007504
AU5725   AU        0.412353    0.530000    0.294706     0.007504
AU5726   AU        0.412353    0.559412    0.324118     0.007504
AU5727   AU        0.441765    0.530000    0.324118     0.007504
AU5728   AU        0.441765    0.559412    0.294706     0.007504
AU5729   AU        0.471176    0.530000    0.294706     0.007504
AU5730   AU        0.471176    0.559412    0.324118     0.007504
AU5731   AU        0.500588    0.530000    0.324118     0.007504
AU5732   AU        0.500588    0.559412    0.294706     0.007504
AU5733   AU        0.530000    0.530000    0.294706     0.007504
AU5734   AU        0.530000    0.559412    0.324118     0.007504
AU5735   AU        0.559412    0.530000    0.324118     0.007504
AU5736   AU        0.559412    0.559412    0.294706     0.007504
AU5737   AU        0.588824    0.530000    0.294706     0.007504
AU5738   AU        0.588824    0.559412    0.324118     0.007504
AU5739   AU        0.618235    0.530000    0.324118     0.007504
AU5740   AU        0.618235    0.559412    0.294706     0.007504
AU5741   AU        0.647647    0.530000    0.294706     0.007504
AU5742   AU        0.647647    0.559412    0.324118     0.007504
AU5743   AU        0.677059    0.530000    0.324118     0.007504
AU5744   AU        0.677059    0.559412    0.294706     0.007504
PD5745   PD        0.706471    0.530000    0.294706     0.005394
AU5746   AU        0.706471    0.559412    0.324118     0.007504
PD5747   PD        0.735882    0.530000    0.324118     0.005394
PD5748   PD        0.735882    0.559412    0.294706     0.005394
PD5749   PD        0.765294    0.530000    0.294706     0.005394
PD5750   PD        0.765294    0.559412    0.324118     0.005394
PD5751   PD        0.794706    0.530000    0.324118     0.005394
PD5774   PD        0.177059    0.618235    0.324118     0.005394
PD5775   PD        0.206471    0.588824    0.324118     0.005394
PD5776   PD        0.206471    0.618235    0.294706     0.005394
PD5777   PD        0.235882    0.588824    0.294706     0.005394
PD5778   PD        0.235882    0.618235    0.324118     0.005394
AU5779   AU        0.265294    0.588824    0.324118     0.007504
PD5780   PD        0.265294    0.618235    0.294706     0.005394
AU5781   AU        0.294706    0.588824    0.294706     0.007504
AU5782   AU        0.294706    0.618235    0.324118     0.007504
AU5783   AU        0.324118    0.588824    0.324118     0.007504
AU5784   AU        0.324118    0.618235    0.294706     0.007504
AU5785   AU        0.353529    0.588824    0.294706     0.007504
AU5786   AU        0.353529    0.618235    0.324118     0.007504
AU5787   AU        0.382941    0.588824    0.324118     0.007504
AU5788   AU        0.382941    0.618235    0.294706     0.007504
AU5789   AU        0.412353    0.588824    0.294706     0.007504
AU5790   AU        0.412353    0.618235    0.324118     0.007504
AU5791   AU        0.441765    0.588824    0.324118     0.007504
AU5792   AU        0.441765    0.618235    0.294706     0.007504
AU5793   AU        0.471176    0.588824    0.294706     0.007504
AU5794   AU        0.471176    0.618235    0.324118     0.007504
AU5795   AU        0.500588    0.588824    0.324118     0.007504
AU5796   AU        0.500588    0.618235    0.294706     0.007504
AU5797   AU        0.530000    0.588824    0.294706     0.007504
AU5798   AU        0.530000    0.618235    0.324118     0.007504
AU5799   AU        0.559412    0.588824    0.324118     0.007504
AU5800   AU        0.559412    0.618235    0.294706     0.007504
AU5801   AU        0.588824    0.588824    0.294706     0.007504
AU5802   AU        0.588824    0.618235    0.324118     0.007504
AU5803   AU        0.618235    0.588824    0.324118     0.007504
PD5804   PD        0.618235    0.618235    0.294706     0.005394
AU5805   AU        0.647647    0.588824    0.294706     0.007504
AU5806   AU        0.647647    0.618235    0.324118     0.007504
PD5807   PD        0.677059    0.588824    0.324118     0.005394
PD5808   PD        0.677059    0.618235    0.294706     0.005394
PD5809   PD        0.706471    0.588824    0.294706     0.005394
PD5810   PD        0.706471    0.618235    0.324118     0.005394
PD5811   PD        0.735882    0.588824    0.324118     0.005394
PD5812   PD        0.735882    0.618235    0.294706     0.005394
PD5814   PD        0.765294    0.618235    0.324118     0.005394
PD5839   PD        0.206471    0.647647    0.324118     0.005394
PD5841   PD        0.235882    0.647647    0.294706     0.005394
PD5842   PD        0.235882    0.677059    0.324118     0.005394
PD5843   PD        0.265294    0.647647    0.324118     0.005394
PD5844   PD        0.265294    0.677059    0.294706     0.005394
PD5845   PD        0.294706    0.647647    0.294706     0.005394
PD5846   PD        0.294706    0.677059    0.324118     0.005394
AU5847   AU        0.324118    0.647647    0.324118     0.007504
PD5848   PD        0.324118    0.677059    0.294706     0.005394
AU5849   AU        0.353529    0.647647    0.294706     0.007504
AU5850   AU        0.353529    0.677059    0.324118     0.007504
AU5851   AU        0.382941    0.647647    0.324118     0.007504
PD5852   PD        0.382941    0.677059    0.294706     0.005394
AU5853   AU        0.412353    0.647647    0.294706     0.007504
AU5854   AU        0.412353    0.677059    0.324118     0.007504
AU5855   AU        0.441765    0.647647    0.324118     0.007504
PD5856   PD        0.441765    0.677059    0.294706     0.005394
AU5857   AU        0.471176    0.647647    0.294706     0.007504
AU5858   AU        0.471176    0.677059    0.324118     0.007504
AU5859   AU        0.500588    0.647647    0.324118     0.007504
AU5860   AU        0.500588    0.677059    0.294706     0.007504
AU5861   AU        0.530000    0.647647    0.294706     0.007504
AU5862   AU        0.530000    0.677059    0.324118     0.007504
AU5863   AU        0.559412    0.647647    0.324118     0.007504
AU5864   AU        0.559412    0.677059    0.294706     0.007504
AU5865   AU        0.588824    0.647647    0.294706     0.007504
AU5866   AU        0.588824    0.677059    0.324118     0.007504
AU5867   AU        0.618235    0.647647    0.324118     0.007504
PD5868   PD        0.618235    0.677059    0.294706     0.005394
PD5869   PD        0.647647    0.647647    0.294706     0.005394
PD5870   PD        0.647647    0.677059    0.324118     0.005394
PD5871   PD        0.677059    0.647647    0.324118     0.005394
PD5872   PD        0.677059    0.677059    0.294706     0.005394
PD5873   PD        0.706471    0.647647    0.294706     0.005394
PD5874   PD        0.706471    0.677059    0.324118     0.005394
PD5875   PD        0.735882    0.647647    0.324118     0.005394
PD5907   PD        0.265294    0.706471    0.324118     0.005394
PD5909   PD        0.294706    0.706471    0.294706     0.005394
PD5910   PD        0.294706    0.735882    0.324118     0.005394
PD5911   PD        0.324118    0.706471    0.324118     0.005394
PD5912   PD        0.324118    0.735882    0.294706     0.005394
PD5913   PD        0.353529    0.706471    0.294706     0.005394
PD5914   PD        0.353529    0.735882    0.324118     0.005394
PD5915   PD        0.382941    0.706471    0.324118     0.005394
PD5916   PD        0.382941    0.735882    0.294706     0.005394
PD5917   PD        0.412353    0.706471    0.294706     0.005394
PD5918   PD        0.412353    0.735882    0.324118     0.005394
PD5919   PD        0.441765    0.706471    0.324118     0.005394
PD5920   PD        0.441765    0.735882    0.294706     0.005394
PD5921   PD        0.471176    0.706471    0.294706     0.005394
PD5922   PD        0.471176    0.735882    0.324118     0.005394
PD5923   PD        0.500588    0.706471    0.324118     0.005394
PD5924   PD        0.500588    0.735882    0.294706     0.005394
PD5925   PD        0.530000    0.706471    0.294706     0.005394
PD5926   PD        0.530000    0.735882    0.324118     0.005394
PD5927   PD        0.559412    0.706471    0.324118     0.005394
PD5928   PD        0.559412    0.735882    0.294706     0.005394
PD5929   PD        0.588824    0.706471    0.294706     0.005394
PD5930   PD        0.588824    0.735882    0.324118     0.005394
PD5931   PD        0.618235    0.706471    0.324118     0.005394
PD5932   PD        0.618235    0.735882    0.294706     0.005394
PD5933   PD        0.647647    0.706471    0.294706     0.005394
PD5934   PD        0.647647    0.735882    0.324118     0.005394
PD5935   PD        0.677059    0.706471    0.324118     0.005394
PD5975   PD        0.324118    0.765294    0.324118     0.005394
PD5979   PD        0.382941    0.765294    0.324118     0.005394
PD5981   PD        0.412353    0.765294    0.294706     0.005394
PD5982   PD        0.412353    0.794706    0.324118     0.005394
PD5983   PD        0.441765    0.765294    0.324118     0.005394
PD5985   PD        0.471176    0.765294    0.294706     0.005394
PD5986   PD        0.471176    0.794706    0.324118     0.005394
PD5987   PD        0.500588    0.765294    0.324118     0.005394
PD5989   PD        0.530000    0.765294    0.294706     0.005394
PD5990   PD        0.530000    0.794706    0.324118     0.005394
PD5991   PD        0.559412    0.765294    0.324118     0.005394
PD5995   PD        0.618235    0.765294    0.324118     0.005394
PD6298   PD        0.353529    0.147647    0.382941     0.005394
PD6300   PD        0.382941    0.147647    0.353529     0.005394
PD6302   PD        0.412353    0.147647    0.382941     0.005394
PD6304   PD        0.441765    0.147647    0.353529     0.005394
PD6306   PD        0.471176    0.147647    0.382941     0.005394
PD6308   PD        0.500588    0.147647    0.353529     0.005394
PD6310   PD        0.530000    0.147647    0.382941     0.005394
PD6312   PD        0.559412    0.147647    0.353529     0.005394
PD6314   PD        0.588824    0.147647    0.382941     0.005394
PD6356   PD        0.265294    0.206471    0.353529     0.005394
PD6358   PD        0.294706    0.206471    0.382941     0.005394
PD6359   PD        0.324118    0.177059    0.382941     0.005394
PD6360   PD        0.324118    0.206471    0.353529     0.005394
PD6361   PD        0.353529    0.177059    0.353529     0.005394
PD6362   PD        0.353529    0.206471    0.382941     0.005394
PD6363   PD        0.382941    0.177059    0.382941     0.005394
PD6364   PD        0.382941    0.206471    0.353529     0.005394
PD6365   PD        0.412353    0.177059    0.353529     0.005394
AU6366   AU        0.412353    0.206471    0.382941     0.007504
PD6367   PD        0.441765    0.177059    0.382941     0.005394
PD6368   PD        0.441765    0.206471    0.353529     0.005394
PD6369   PD        0.471176    0.177059    0.353529     0.005394
AU6370   AU        0.471176    0.206471    0.382941     0.007504
PD6371   PD        0.500588    0.177059    0.382941     0.005394
AU6372   AU        0.500588    0.206471    0.353529     0.007504
PD6373   PD        0.530000    0.177059    0.353529     0.005394
AU6374   AU        0.530000    0.206471    0.382941     0.007504
PD6375   PD        0.559412    0.177059    0.382941     0.005394
PD6376   PD        0.559412    0.206471    0.353529     0.005394
PD6377   PD        0.588824    0.177059    0.353529     0.005394
AU6378   AU        0.588824    0.206471    0.382941     0.007504
PD6379   PD        0.618235    0.177059    0.382941     0.005394
PD6380   PD        0.618235    0.206471    0.353529     0.005394
PD6382   PD        0.647647    0.206471    0.382941     0.005394
PD6384   PD        0.677059    0.206471    0.353529     0.005394
PD6416   PD        0.206471    0.265294    0.353529     0.005394
PD6417   PD        0.235882    0.235882    0.353529     0.005394
PD6418   PD        0.235882    0.265294    0.382941     0.005394
PD6419   PD        0.265294    0.235882    0.382941     0.005394
PD6420   PD        0.265294    0.265294    0.353529     0.005394
PD6421   PD        0.294706    0.235882    0.353529     0.005394
PD6422   PD        0.294706    0.265294    0.382941     0.005394
AU6423   AU        0.324118    0.235882    0.382941     0.007504
AU6424   AU        0.324118    0.265294    0.353529     0.007504
PD6425   PD        0.353529    0.235882    0.353529     0.005394
AU6426   AU        0.353529    0.265294    0.382941     0.007504
AU6427   AU        0.382941    0.235882    0.382941     0.007504
AU6428   AU        0.382941    0.265294    0.353529     0.007504
AU6429   AU        0.412353    0.235882    0.353529     0.007504
AU6430   AU        0.412353    0.265294    0.382941     0.007504
AU6431   AU        0.441765    0.235882    0.382941     0.007504
AU6432   AU        0.441765    0.265294    0.353529     0.007504
AU6433   AU        0.471176    0.235882    0.353529     0.007504
AU6434   AU        0.471176    0.265294    0.382941     0.007504
AU6435   AU        0.500588    0.235882    0.382941     0.007504
AU6436   AU        0.500588    0.265294    0.353529     0.007504
AU6437   AU        0.530000    0.235882    0.353529     0.007504
AU6438   AU        0.530000    0.265294    0.382941     0.007504
PD6439   PD        0.559412    0.235882    0.382941     0.005394
AU6440   AU        0.559412    0.265294    0.353529     0.007504
PD6441   PD        0.588824    0.235882    0.353529     0.005394
AU6442   AU        0.588824    0.265294    0.382941     0.007504
PD6443   PD        0.618235    0.235882    0.382941     0.005394
PD6444   PD        0.618235    0.265294    0.353529     0.005394
PD6445   PD        0.647647    0.235882    0.353529     0.005394
AU6446   AU        0.647647    0.265294    0.382941     0.007504
PD6447   PD        0.677059    0.235882    0.382941     0.005394
PD6448   PD        0.677059    0.265294    0.353529     0.005394
PD6449   PD        0.706471    0.235882    0.353529     0.005394
PD6450   PD        0.706471    0.265294    0.382941     0.005394
PD6452   PD        0.735882    0.265294    0.353529     0.005394
PD6478   PD        0.177059    0.324118    0.382941     0.005394
PD6479   PD        0.206471    0.294706    0.382941     0.005394
PD6480   PD        0.206471    0.324118    0.353529     0.005394
PD6481   PD        0.235882    0.294706    0.353529     0.005394
AU6482   AU        0.235882    0.324118    0.382941     0.007504
AU6483   AU        0.265294    0.294706    0.382941     0.007504
PD6484   PD        0.265294    0.324118    0.353529     0.005394
PD6485   PD        0.294706    0.294706    0.353529     0.005394
AU6486   AU        0.294706    0.324118    0.382941     0.007504
AU6487   AU        0.324118    0.294706    0.382941     0.007504
AU6488   AU        0.324118    0.324118    0.353529     0.007504
AU6489   AU        0.353529    0.294706    0.353529     0.007504
AU6490   AU        0.353529    0.324118    0.382941     0.007504
AU6491   AU        0.382941    0.294706    0.382941     0.007504
AU6492   AU        0.382941    0.324118    0.353529     0.007504
AU6493   AU        0.412353    0.294706    0.353529     0.007504
AU6494   AU        0.412353    0.324118    0.382941     0.007504
AU6495   AU        0.441765    0.294706    0.382941     0.007504
AU6496   AU        0.441765    0.324118    0.353529     0.007504
AU6497   AU        0.471176    0.294706    0.353529     0.007504
AU6498   AU        0.471176    0.324118    0.382941     0.007504
AU6499   AU        0.500588    0.294706    0.382941     0.007504
AU6500   AU        0.500588    0.324118    0.353529     0.007504
AU6501   AU        0.530000    0.294706    0.353529     0.007504
AU6502   AU        0.530000    0.324118    0.382941     0.007504
AU6503   AU        0.559412    0.294706    0.382941     0.007504
AU6504   AU        0.559412    0.324118    0.353529     0.007504
AU6505   AU        0.588824    0.294706    0.353529     0.007504
AU6506   AU        0.588824    0.324118    0.382941     0.007504
AU6507   AU        0.618235    0.294706    0.382941     0.007504
AU6508   AU        0.618235    0.324118    0.353529     0.007504
PD6509   PD        0.647647    0.294706    0.353529     0.005394
AU6510   AU        0.647647    0.324118    0.382941     0.007504
PD6511   PD        0.677059    0.294706    0.382941     0.005394
AU6512   AU        0.677059    0.324118    0.353529     0.007504
PD6513   PD        0.706471    0.294706    0.353529     0.005394
PD6514   PD        0.706471    0.324118    0.382941     0.005394
PD6515   PD        0.735882    0.294706    0.382941     0.005394
PD6516   PD        0.735882    0.324118    0.353529     0.005394
PD6518   PD        0.765294    0.324118    0.382941     0.005394
PD6539   PD        0.147647    0.353529    0.382941     0.005394
PD6540   PD        0.147647    0.382941    0.353529     0.005394
PD6541   PD        0.177059    0.353529    0.353529     0.005394
PD6542   PD        0.177059    0.382941    0.382941     0.005394
PD6543   PD        0.206471    0.353529    0.382941     0.005394
PD6544   PD        0.206471    0.382941    0.353529     0.005394
AU6545   AU        0.235882    0.353529    0.353529     0.007504
AU6546   AU        0.235882    0.382941    0.382941     0.007504
AU6547   AU        0.265294    0.353529    0.382941     0.007504
AU6548   AU        0.265294    0.382941    0.353529     0.007504
AU6549   AU        0.294706    0.353529    0.353529     0.007504
AU6550   AU        0.294706    0.382941    0.382941     0.007504
AU6551   AU        0.324118    0.353529    0.382941     0.007504
AU6552   AU        0.324118    0.382941    0.353529     0.007504
AU6553   AU        0.353529    0.353529    0.353529     0.007504
AU6554   AU        0.353529    0.382941    0.382941     0.007504
AU6555   AU        0.382941    0.353529    0.382941     0.007504
AU6556   AU        0.382941    0.382941    0.353529     0.007504
AU6557   AU        0.412353    0.353529    0.353529     0.007504
AU6558   AU        0.412353    0.382941    0.382941     0.007504
AU6559   AU        0.441765    0.353529    0.382941     0.007504
AU6560   AU        0.441765    0.382941    0.353529     0.007504
AU6561   AU        0.471176    0.353529    0.353529     0.007504
AU6562   AU        0.471176    0.382941    0.382941     0.007504
AU6563   AU        0.500588    0.353529    0.382941     0.007504
AU6564   AU        0.500588    0.382941    0.353529     0.007504
AU6565   AU        0.530000    0.353529    0.353529     0.007504
AU6566   AU        0.530000    0.382941    0.382941     0.007504
AU6567   AU        0.559412    0.353529    0.382941     0.007504
AU6568   AU        0.559412    0.382941    0.353529     0.007504
AU6569   AU        0.588824    0.353529    0.353529     0.007504
AU6570   AU        0.588824    0.382941    0.382941     0.007504
AU6571   AU        0.618235    0.353529    0.382941     0.007504
AU6572   AU        0.618235    0.382941    0.353529     0.007504
AU6573   AU        0.647647    0.353529    0.353529     0.007504
AU6574   AU        0.647647    0.382941    0.382941     0.007504
AU6575   AU        0.677059    0.353529    0.382941     0.007504
AU6576   AU        0.677059    0.382941    0.353529     0.007504
AU6577   AU        0.706471    0.353529    0.353529     0.007504
PD6578   PD        0.706471    0.382941    0.382941     0.005394
PD6579   PD        0.735882    0.353529    0.382941     0.005394
PD6580   PD        0.735882    0.382941    0.353529     0.005394
PD6581   PD        0.765294    0.353529    0.353529     0.005394
PD6582   PD        0.765294    0.382941    0.382941     0.005394
PD6583   PD        0.794706    0.353529    0.382941     0.005394
PD6584   PD        0.794706    0.382941    0.353529     0.005394
PD6603   PD        0.147647    0.412353    0.382941     0.005394
PD6604   PD        0.147647    0.441765    0.353529     0.005394
PD6605   PD        0.177059    0.412353    0.353529     0.005394
PD6606   PD        0.177059    0.441765    0.382941     0.005394
AU6607   AU        0.206471    0.412353    0.382941     0.007504
PD6608   PD        0.206471    0.441765    0.353529     0.005394
AU6609   AU        0.235882    0.412353    0.353529     0.007504
AU6610   AU        0.235882    0.441765    0.382941     0.007504
AU6611   AU        0.265294    0.412353    0.382941     0.007504
AU6612   AU        0.265294    0.441765    0.353529     0.007504
AU6613   AU        0.294706    0.412353    0.353529     0.007504
AU6614   AU        0.294706    0.441765    0.382941     0.007504
AU6615   AU        0.324118    0.412353    0.382941     0.007504
AU6616   AU        0.324118    0.441765    0.353529     0.007504
AU6617   AU        0.353529    0.412353    0.353529     0.007504
AU6618   AU        0.353529    0.441765    0.382941     0.007504
AU6619   AU        0.382941    0.412353    0.382941     0.007504
AU6620   AU        0.382941    0.441765    0.353529     0.007504
AU6621   AU        0.412353    0.412353    0.353529     0.007504
AU6622   AU        0.412353    0.441765    0.382941     0.007504
AU6623   AU        0.441765    0.412353    0.382941     0.007504
AU6624   AU        0.441765    0.441765    0.353529     0.007504
AU6625   AU        0.471176    0.412353    0.353529     0.007504
AU6626   AU        0.471176    0.441765    0.382941     0.007504
AU6627   AU        0.500588    0.412353    0.382941     0.007504
AU6628   AU        0.500588    0.441765    0.353529     0.007504
AU6629   AU        0.530000    0.412353    0.353529     0.007504
AU6630   AU        0.530000    0.441765    0.382941     0.007504
AU6631   AU        0.559412    0.412353    0.382941     0.007504
AU6632   AU        0.559412    0.441765    0.353529     0.007504
AU6633   AU        0.588824    0.412353    0.353529     0.007504
AU6634   AU        0.588824    0.441765    0.382941     0.007504
AU6635   AU        0.618235    0.412353    0.382941     0.007504
AU6636   AU        0.618235    0.441765    0.353529     0.007504
AU6637   AU        0.647647    0.412353    0.353529     0.007504
AU6638   AU        0.647647    0.441765    0.382941     0.007504
AU6639   AU        0.677059    0.412353    0.382941     0.007504
AU6640   AU        0.677059    0.441765    0.353529     0.007504
AU6641   AU        0.706471    0.412353    0.353529     0.007504
AU6642   AU        0.706471    0.441765    0.382941     0.007504
PD6643   PD        0.735882    0.412353    0.382941     0.005394
AU6644   AU        0.735882    0.441765    0.353529     0.007504
PD6645   PD        0.765294    0.412353    0.353529     0.005394
PD6646   PD        0.765294    0.441765    0.382941     0.005394
PD6647   PD        0.794706    0.412353    0.382941     0.005394
PD6648   PD        0.794706    0.441765    0.353529     0.005394
PD6667   PD        0.147647    0.471176    0.382941     0.005394
PD6668   PD        0.147647    0.500588    0.353529     0.005394
PD6669   PD        0.177059    0.471176    0.353529     0.005394
PD6670   PD        0.177059    0.500588    0.382941     0.005394
AU6671   AU        0.206471    0.471176    0.382941     0.007504
PD6672   PD        0.206471    0.500588    0.353529     0.005394
AU6673   AU        0.235882    0.471176    0.353529     0.007504
AU6674   AU        0.235882    0.500588    0.382941     0.007504
AU6675   AU        0.265294    0.471176    0.382941     0.007504
AU6676   AU        0.265294    0.500588    0.353529     0.007504
AU6677   AU        0.294706    0.471176    0.353529     0.007504
AU6678   AU        0.294706    0.500588    0.382941     0.007504
AU6679   AU        0.324118    0.471176    0.382941     0.007504
AU6680   AU        0.324118    0.500588    0.353529     0.007504
AU6681   AU        0.353529    0.471176    0.353529     0.007504
AU6682   AU        0.353529    0.500588    0.382941     0.007504
AU6683   AU        0.382941    0.471176    0.382941     0.007504
AU6684   AU        0.382941    0.500588    0.353529     0.007504
AU6685   AU        0.412353    0.471176    0.353529     0.007504
AU6686   AU        0.412353    0.500588    0.382941     0.007504
AU6687   AU        0.441765    0.471176    0.382941     0.007504
AU6688   AU        0.441765    0.500588    0.353529     0.007504
AU6689   AU        0.471176    0.471176    0.353529     0.007504
AU6690   AU        0.471176    0.500588    0.382941     0.007504
AU6691   AU        0.500588    0.471176    0.382941     0.007504
AU6692   AU        0.500588    0.500588    0.353529     0.007504
AU6693   AU        0.530000    0.471176    0.353529     0.007504
AU6694   AU        0.530000    0.500588    0.382941     0.007504
AU6695   AU        0.559412    0.471176    0.382941     0.007504
AU6696   AU        0.559412    0.500588    0.353529     0.007504
AU6697   AU        0.588824    0.471176    0.353529     0.007504
AU6698   AU        0.588824    0.500588    0.382941     0.007504
AU6699   AU        0.618235    0.471176    0.382941     0.007504
AU6700   AU        0.618235    0.500588    0.353529     0.007504
AU6701   AU        0.647647    0.471176    0.353529     0.007504
AU6702   AU        0.647647    0.500588    0.382941     0.007504
AU6703   AU        0.677059    0.471176    0.382941     0.007504
AU6704   AU        0.677059    0.500588    0.353529     0.007504
AU6705   AU        0.706471    0.471176    0.353529     0.007504
AU6706   AU        0.706471    0.500588    0.382941     0.007504
AU6707   AU        0.735882    0.471176    0.382941     0.007504
PD6708   PD        0.735882    0.500588    0.353529     0.005394
AU6709   AU        0.765294    0.471176    0.353529     0.007504
PD6710   PD        0.765294    0.500588    0.382941     0.005394
PD6711   PD        0.794706    0.471176    0.382941     0.005394
PD6712   PD        0.794706    0.500588    0.353529     0.005394
PD6731   PD        0.147647    0.530000    0.382941     0.005394
PD6732   PD        0.147647    0.559412    0.353529     0.005394
PD6733   PD        0.177059    0.530000    0.353529     0.005394
PD6734   PD        0.177059    0.559412    0.382941     0.005394
PD6735   PD        0.206471    0.530000    0.382941     0.005394
PD6736   PD        0.206471    0.559412    0.353529     0.005394
PD6737   PD        0.235882    0.530000    0.353529     0.005394
PD6738   PD        0.235882    0.559412    0.382941     0.005394
AU6739   AU        0.265294    0.530000    0.382941     0.007504
AU6740   AU        0.265294    0.559412    0.353529     0.007504
AU6741   AU        0.294706    0.530000    0.353529     0.007504
AU6742   AU        0.294706    0.559412    0.382941     0.007504
AU6743   AU        0.324118    0.530000    0.382941     0.007504
AU6744   AU        0.324118    0.559412    0.353529     0.007504
AU6745   AU        0.353529    0.530000    0.353529     0.007504
AU6746   AU        0.353529    0.559412    0.382941     0.007504
AU6747   AU        0.382941    0.530000    0.382941     0.007504
AU6748   AU        0.382941    0.559412    0.353529     0.007504
AU6749   AU        0.412353    0.530000    0.353529     0.007504
AU6750   AU        0.412353    0.559412    0.382941     0.007504
AU6751   AU        0.441765    0.530000    0.382941     0.007504
AU6752   AU        0.441765    0.559412    0.353529     0.007504
AU6753   AU        0.471176    0.530000    0.353529     0.007504
AU6754   AU        0.471176    0.559412    0.382941     0.007504
AU6755   AU        0.500588    0.530000    0.382941     0.007504
AU6756   AU        0.500588    0.559412    0.353529     0.007504
AU6757   AU        0.530000    0.530000    0.353529     0.007504
AU6758   AU        0.530000    0.559412    0.382941     0.007504
AU6759   AU        0.559412    0.530000    0.382941     0.007504
AU6760   AU        0.559412    0.559412    0.353529     0.007504
AU6761   AU        0.588824    0.530000    0.353529     0.007504
AU6762   AU        0.588824    0.559412    0.382941     0.007504
AU6763   AU        0.618235    0.530000    0.382941     0.007504
AU6764   AU        0.618235    0.559412    0.353529     0.007504
AU6765   AU        0.647647    0.530000    0.353529     0.007504
AU6766   AU        0.647647    0.559412    0.382941     0.007504
AU6767   AU        0.677059    0.530000    0.382941     0.007504
AU6768   AU        0.677059    0.559412    0.353529     0.007504
AU6769   AU        0.706471    0.530000    0.353529     0.007504
AU6770   AU        0.706471    0.559412    0.382941     0.007504
AU6771   AU        0.735882    0.530000    0.382941     0.007504
PD6772   PD        0.735882    0.559412    0.353529     0.005394
PD6773   PD        0.765294    0.530000    0.353529     0.005394
PD6774   PD        0.765294    0.559412    0.382941     0.005394
PD6775   PD        0.794706    0.530000    0.382941     0.005394
PD6776   PD        0.794706    0.559412    0.353529     0.005394
PD6795   PD        0.147647    0.588824    0.382941     0.005394
PD6797   PD        0.177059    0.588824    0.353529     0.005394
PD6798   PD        0.177059    0.618235    0.382941     0.005394
PD6799   PD        0.206471    0.588824    0.382941     0.005394
PD6800   PD        0.206471    0.618235    0.353529     0.005394
PD6801   PD        0.235882    0.588824    0.353529     0.005394
PD6802   PD        0.235882    0.618235    0.382941     0.005394
AU6803   AU        0.265294    0.588824    0.382941     0.007504
AU6804   AU        0.265294    0.618235    0.353529     0.007504
AU6805   AU        0.294706    0.588824    0.353529     0.007504
AU6806   AU        0.294706    0.618235    0.382941     0.007504
AU6807   AU        0.324118    0.588824    0.382941     0.007504
AU6808   AU        0.324118    0.618235    0.353529     0.007504
AU6809   AU        0.353529    0.588824    0.353529     0.007504
AU6810   AU        0.353529    0.618235    0.382941     0.007504
AU6811   AU        0.382941    0.588824    0.382941     0.007504
AU6812   AU        0.382941    0.618235    0.353529     0.007504
AU6813   AU        0.412353    0.588824    0.353529     0.007504
AU6814   AU        0.412353    0.618235    0.382941     0.007504
AU6815   AU        0.441765    0.588824    0.382941     0.007504
AU6816   AU        0.441765    0.618235    0.353529     0.007504
AU6817   AU        0.471176    0.588824    0.353529     0.007504
AU6818   AU        0.471176    0.618235    0.382941     0.007504
AU6819   AU        0.500588    0.588824    0.382941     0.007504
AU6820   AU        0.500588    0.618235    0.353529     0.007504
AU6821   AU        0.530000    0.588824    0.353529     0.007504
AU6822   AU        0.530000    0.618235    0.382941     0.007504
AU6823   AU        0.559412    0.588824    0.382941     0.007504
AU6824   AU        0.559412    0.618235    0.353529     0.007504
AU6825   AU        0.588824    0.588824    0.353529     0.007504
AU6826   AU        0.588824    0.618235    0.382941     0.007504
AU6827   AU        0.618235    0.588824    0.382941     0.007504
AU6828   AU        0.618235    0.618235    0.353529     0.007504
AU6829   AU        0.647647    0.588824    0.353529     0.007504
AU6830   AU        0.647647    0.618235    0.382941     0.007504
AU6831   AU        0.677059    0.588824    0.382941     0.007504
AU6832   AU        0.677059    0.618235    0.353529     0.007504
PD6833   PD        0.706471    0.588824    0.353529     0.005394
AU6834   AU        0.706471    0.618235    0.382941     0.007504
PD6835   PD        0.735882    0.588824    0.382941     0.005394
PD6836   PD        0.735882    0.618235    0.353529     0.005394
PD6837   PD        0.765294    0.588824    0.353529     0.005394
PD6838   PD        0.765294    0.618235    0.382941     0.005394
PD6839   PD        0.794706    0.588824    0.382941     0.005394
PD6863   PD        0.206471    0.647647    0.382941     0.005394
PD6864   PD        0.206471    0.677059    0.353529     0.005394
PD6865   PD        0.235882    0.647647    0.353529     0.005394
PD6866   PD        0.235882    0.677059    0.382941     0.005394
AU6867   AU        0.265294    0.647647    0.382941     0.007504
PD6868   PD        0.265294    0.677059    0.353529     0.005394
AU6869   AU        0.294706    0.647647    0.353529     0.007504
PD6870   PD        0.294706    0.677059    0.382941     0.005394
AU6871   AU        0.324118    0.647647    0.382941     0.007504
AU6872   AU        0.324118    0.677059    0.353529     0.007504
AU6873   AU        0.353529    0.647647    0.353529     0.007504
AU6874   AU        0.353529    0.677059    0.382941     0.007504
AU6875   AU        0.382941    0.647647    0.382941     0.007504
AU6876   AU        0.382941    0.677059    0.353529     0.007504
AU6877   AU        0.412353    0.647647    0.353529     0.007504
AU6878   AU        0.412353    0.677059    0.382941     0.007504
AU6879   AU        0.441765    0.647647    0.382941     0.007504
AU6880   AU        0.441765    0.677059    0.353529     0.007504
AU6881   AU        0.471176    0.647647    0.353529     0.007504
AU6882   AU        0.471176    0.677059    0.382941     0.007504
AU6883   AU        0.500588    0.647647    0.382941     0.007504
AU6884   AU        0.500588    0.677059    0.353529     0.007504
AU6885   AU        0.530000    0.647647    0.353529     0.007504
AU6886   AU        0.530000    0.677059    0.382941     0.007504
AU6887   AU        0.559412    0.647647    0.382941     0.007504
AU6888   AU        0.559412    0.677059    0.353529     0.007504
AU6889   AU        0.588824    0.647647    0.353529     0.007504
AU6890   AU        0.588824    0.677059    0.382941     0.007504
AU6891   AU        0.618235    0.647647    0.382941     0.007504
AU6892   AU        0.618235    0.677059    0.353529     0.007504
AU6893   AU        0.647647    0.647647    0.353529     0.007504
PD6894   PD        0.647647    0.677059    0.382941     0.005394
AU6895   AU        0.677059    0.647647    0.382941     0.007504
PD6896   PD        0.677059    0.677059    0.353529     0.005394
PD6897   PD        0.706471    0.647647    0.353529     0.005394
PD6898   PD        0.706471    0.677059    0.382941     0.005394
PD6899   PD        0.735882    0.647647    0.382941     0.005394
PD6900   PD        0.735882    0.677059    0.353529     0.005394
PD6929   PD        0.235882    0.706471    0.353529     0.005394
PD6931   PD        0.265294    0.706471    0.382941     0.005394
PD6932   PD        0.265294    0.735882    0.353529     0.005394
PD6933   PD        0.294706    0.706471    0.353529     0.005394
PD6934   PD        0.294706    0.735882    0.382941     0.005394
AU6935   AU        0.324118    0.706471    0.382941     0.007504
PD6936   PD        0.324118    0.735882    0.353529     0.005394
PD6937   PD        0.353529    0.706471    0.353529     0.005394
PD6938   PD        0.353529    0.735882    0.382941     0.005394
AU6939   AU        0.382941    0.706471    0.382941     0.007504
PD6940   PD        0.382941    0.735882    0.353529     0.005394
AU6941   AU        0.412353    0.706471    0.353529     0.007504
PD6942   PD        0.412353    0.735882    0.382941     0.005394
AU6943   AU        0.441765    0.706471    0.382941     0.007504
AU6944   AU        0.441765    0.735882    0.353529     0.007504
AU6945   AU        0.471176    0.706471    0.353529     0.007504
AU6946   AU        0.471176    0.735882    0.382941     0.007504
AU6947   AU        0.500588    0.706471    0.382941     0.007504
PD6948   PD        0.500588    0.735882    0.353529     0.005394
AU6949   AU        0.530000    0.706471    0.353529     0.007504
PD6950   PD        0.530000    0.735882    0.382941     0.005394
PD6951   PD        0.559412    0.706471    0.382941     0.005394
PD6952   PD        0.559412    0.735882    0.353529     0.005394
AU6953   AU        0.588824    0.706471    0.353529     0.007504
PD6954   PD        0.588824    0.735882    0.382941     0.005394
AU6955   AU        0.618235    0.706471    0.382941     0.007504
AU6956   AU        0.618235    0.735882    0.353529     0.007504
PD6957   PD        0.647647    0.706471    0.353529     0.005394
PD6958   PD        0.647647    0.735882    0.382941     0.005394
PD6959   PD        0.677059    0.706471    0.382941     0.005394
PD6960   PD        0.677059    0.735882    0.353529     0.005394
PD6961   PD        0.706471    0.706471    0.353529     0.005394
PD6999   PD        0.324118    0.765294    0.382941     0.005394
PD7001   PD        0.353529    0.765294    0.353529     0.005394
PD7002   PD        0.353529    0.794706    0.382941     0.005394
PD7003   PD        0.382941    0.765294    0.382941     0.005394
PD7004   PD        0.382941    0.794706    0.353529     0.005394
PD7005   PD        0.412353    0.765294    0.353529     0.005394
PD7006   PD        0.412353    0.794706    0.382941     0.005394
PD7007   PD        0.441765    0.765294    0.382941     0.005394
PD7008   PD        0.441765    0.794706    0.353529     0.005394
PD7009   PD        0.471176    0.765294    0.353529     0.005394
PD7010   PD        0.471176    0.794706    0.382941     0.005394
PD7011   PD        0.500588    0.765294    0.382941     0.005394
PD7012   PD        0.500588    0.794706    0.353529     0.005394
PD7013   PD        0.530000    0.765294    0.353529     0.005394
PD7014   PD        0.530000    0.794706    0.382941     0.005394
PD7015   PD        0.559412    0.765294    0.382941     0.005394
PD7016   PD        0.559412    0.794706    0.353529     0.005394
PD7017   PD        0.588824    0.765294    0.353529     0.005394
PD7018   PD        0.588824    0.794706    0.382941     0.005394
PD7019   PD        0.618235    0.765294    0.382941     0.005394
PD7320   PD        0.324118    0.147647    0.412353     0.005394
PD7322   PD        0.353529    0.147647    0.441765     0.005394
PD7324   PD        0.382941    0.147647    0.412353     0.005394
PD7326   PD        0.412353    0.147647    0.441765     0.005394
PD7327   PD        0.441765    0.118235    0.441765     0.005394
PD7328   PD        0.441765    0.147647    0.412353     0.005394
PD7329   PD        0.471176    0.118235    0.412353     0.005394
PD7330   PD        0.471176    0.147647    0.441765     0.005394
PD7331   PD        0.500588    0.118235    0.441765     0.005394
PD7332   PD        0.500588    0.147647    0.412353     0.005394
PD7334   PD        0.530000    0.147647    0.441765     0.005394
PD7336   PD        0.559412    0.147647    0.412353     0.005394
PD7338   PD        0.588824    0.147647    0.441765     0.005394
PD7340   PD        0.618235    0.147647    0.412353     0.005394
PD7378   PD        0.235882    0.206471    0.441765     0.005394
PD7379   PD        0.265294    0.177059    0.441765     0.005394
PD7380   PD        0.265294    0.206471    0.412353     0.005394
PD7381   PD        0.294706    0.177059    0.412353     0.005394
PD7382   PD        0.294706    0.206471    0.441765     0.005394
PD7383   PD        0.324118    0.177059    0.441765     0.005394
PD7384   PD        0.324118    0.206471    0.412353     0.005394
PD7385   PD        0.353529    0.177059    0.412353     0.005394
PD7386   PD        0.353529    0.206471    0.441765     0.005394
PD7387   PD        0.382941    0.177059    0.441765     0.005394
AU7388   AU        0.382941    0.206471    0.412353     0.007504
PD7389   PD        0.412353    0.177059    0.412353     0.005394
AU7390   AU        0.412353    0.206471    0.441765     0.007504
PD7391   PD        0.441765    0.177059    0.441765     0.005394
AU7392   AU        0.441765    0.206471    0.412353     0.007504
PD7393   PD        0.471176    0.177059    0.412353     0.005394
AU7394   AU        0.471176    0.206471    0.441765     0.007504
PD7395   PD        0.500588    0.177059    0.441765     0.005394
AU7396   AU        0.500588    0.206471    0.412353     0.007504
PD7397   PD        0.530000    0.177059    0.412353     0.005394
AU7398   AU        0.530000    0.206471    0.441765     0.007504
AU7399   AU        0.559412    0.177059    0.441765     0.007504
PD7400   PD        0.559412    0.206471    0.412353     0.005394
PD7401   PD        0.588824    0.177059    0.412353     0.005394
PD7402   PD        0.588824    0.206471    0.441765     0.005394
PD7403   PD        0.618235    0.177059    0.441765     0.005394
PD7404   PD        0.618235    0.206471    0.412353     0.005394
PD7405   PD        0.647647    0.177059    0.412353     0.005394
PD7406   PD        0.647647    0.206471    0.441765     0.005394
PD7407   PD        0.677059    0.177059    0.441765     0.005394
PD7408   PD        0.677059    0.206471    0.412353     0.005394
PD7410   PD        0.706471    0.206471    0.441765     0.005394
PD7438   PD        0.177059    0.265294    0.441765     0.005394
PD7439   PD        0.206471    0.235882    0.441765     0.005394
PD7440   PD        0.206471    0.265294    0.412353     0.005394
PD7441   PD        0.235882    0.235882    0.412353     0.005394
PD7442   PD        0.235882    0.265294    0.441765     0.005394
PD7443   PD        0.265294    0.235882    0.441765     0.005394
PD7444   PD        0.265294    0.265294    0.412353     0.005394
PD7445   PD        0.294706    0.235882    0.412353     0.005394
AU7446   AU        0.294706    0.265294    0.441765     0.007504
AU7447   AU        0.324118    0.235882    0.441765     0.007504
AU7448   AU        0.324118    0.265294    0.412353     0.007504
AU7449   AU        0.353529    0.235882    0.412353     0.007504
AU7450   AU        0.353529    0.265294    0.441765     0.007504
AU7451   AU        0.382941    0.235882    0.441765     0.007504
AU7452   AU        0.382941    0.265294    0.412353     0.007504
AU7453   AU        0.412353    0.235882    0.412353     0.007504
AU7454   AU        0.412353    0.265294    0.441765     0.007504
AU7455   AU        0.441765    0.235882    0.441765     0.007504
AU7456   AU        0.441765    0.265294    0.412353     0.007504
AU7457   AU        0.471176    0.235882    0.412353     0.007504
AU7458   AU        0.471176    0.265294    0.441765     0.007504
AU7459   AU        0.500588    0.235882    0.441765     0.007504
AU7460   AU        0.500588    0.265294    0.412353     0.007504
AU7461   AU        0.530000    0.235882    0.412353     0.007504
AU7462   AU        0.530000    0.265294    0.441765     0.007504
AU7463   AU        0.559412    0.235882    0.441765     0.007504
AU7464   AU        0.559412    0.265294    0.412353     0.007504
AU7465   AU        0.588824    0.235882    0.412353     0.007504
AU7466   AU        0.588824    0.265294    0.441765     0.007504
AU7467   AU        0.618235    0.235882    0.441765     0.007504
AU7468   AU        0.618235    0.265294    0.412353     0.007504
PD7469   PD        0.647647    0.235882    0.412353     0.005394
AU7470   AU        0.647647    0.265294    0.441765     0.007504
PD7471   PD        0.677059    0.235882    0.441765     0.005394
PD7472   PD        0.677059    0.265294    0.412353     0.005394
PD7473   PD        0.706471    0.235882    0.412353     0.005394
PD7474   PD        0.706471    0.265294    0.441765     0.005394
PD7475   PD        0.735882    0.235882    0.441765     0.005394
PD7476   PD        0.735882    0.265294    0.412353     0.005394
PD7478   PD        0.765294    0.265294    0.441765     0.005394
PD7500   PD        0.147647    0.324118    0.412353     0.005394
PD7501   PD        0.177059    0.294706    0.412353     0.005394
PD7502   PD        0.177059    0.324118    0.441765     0.005394
PD7503   PD        0.206471    0.294706    0.441765     0.005394
PD7504   PD        0.206471    0.324118    0.412353     0.005394
PD7505   PD        0.235882    0.294706    0.412353     0.005394
PD7506   PD        0.235882    0.324118    0.441765     0.005394
AU7507   AU        0.265294    0.294706    0.441765     0.007504
AU7508   AU        0.265294    0.324118    0.412353     0.007504
AU7509   AU        0.294706    0.294706    0.412353     0.007504
AU7510   AU        0.294706    0.324118    0.441765     0.007504
AU7511   AU        0.324118    0.294706    0.441765     0.007504
AU7512   AU        0.324118    0.324118    0.412353     0.007504
AU7513   AU        0.353529    0.294706    0.412353     0.007504
AU7514   AU        0.353529    0.324118    0.441765     0.007504
AU7515   AU        0.382941    0.294706    0.441765     0.007504
AU7516   AU        0.382941    0.324118    0.412353     0.007504
AU7517   AU        0.412353    0.294706    0.412353     0.007504
AU7518   AU        0.412353    0.324118    0.441765     0.007504
AU7519   AU        0.441765    0.294706    0.441765     0.007504
AU7520   AU        0.441765    0.324118    0.412353     0.007504
AU7521   AU        0.471176    0.294706    0.412353     0.007504
AU7522   AU        0.471176    0.324118    0.441765     0.007504
AU7523   AU        0.500588    0.294706    0.441765     0.007504
AU7524   AU        0.500588    0.324118    0.412353     0.007504
AU7525   AU        0.530000    0.294706    0.412353     0.007504
AU7526   AU        0.530000    0.324118    0.441765     0.007504
AU7527   AU        0.559412    0.294706    0.441765     0.007504
AU7528   AU        0.559412    0.324118    0.412353     0.007504
AU7529   AU        0.588824    0.294706    0.412353     0.007504
AU7530   AU        0.588824    0.324118    0.441765     0.007504
AU7531   AU        0.618235    0.294706    0.441765     0.007504
AU7532   AU        0.618235    0.324118    0.412353     0.007504
AU7533   AU        0.647647    0.294706    0.412353     0.007504
AU7534   AU        0.647647    0.324118    0.441765     0.007504
AU7535   AU        0.677059    0.294706    0.441765     0.007504
AU7536   AU        0.677059    0.324118    0.412353     0.007504
PD7537   PD        0.706471    0.294706    0.412353     0.005394
PD7538   PD        0.706471    0.324118    0.441765     0.005394
PD7539   PD        0.735882    0.294706    0.441765     0.005394
PD7540   PD        0.735882    0.324118    0.412353     0.005394
PD7541   PD        0.765294    0.294706    0.412353     0.005394
PD7542   PD        0.765294    0.324118    0.441765     0.005394
PD7544   PD        0.794706    0.324118    0.412353     0.005394
PD7563   PD        0.147647    0.353529    0.441765     0.005394
PD7564   PD        0.147647    0.382941    0.412353     0.005394
PD7565   PD        0.177059    0.353529    0.412353     0.005394
PD7566   PD        0.177059    0.382941    0.441765     0.005394
AU7567   AU        0.206471    0.353529    0.441765     0.007504
AU7568   AU        0.206471    0.382941    0.412353     0.007504
PD7569   PD        0.235882    0.353529    0.412353     0.005394
AU7570   AU        0.235882    0.382941    0.441765     0.007504
AU7571   AU        0.265294    0.353529    0.441765     0.007504
AU7572   AU        0.265294    0.382941    0.412353     0.007504
AU7573   AU        0.294706    0.353529    0.412353     0.007504
AU7574   AU        0.294706    0.382941    0.441765     0.007504
AU7575   AU        0.324118    0.353529    0.441765     0.007504
AU7576   AU        0.324118    0.382941    0.412353     0.007504
AU7577   AU        0.353529    0.353529    0.412353     0.007504
AU7578   AU        0.353529    0.382941    0.441765     0.007504
AU7579   AU        0.382941    0.353529    0.441765     0.007504
AU7580   AU        0.382941    0.382941    0.412353     0.007504
AU7581   AU        0.412353    0.353529    0.412353     0.007504
AU7582   AU        0.412353    0.382941    0.441765     0.007504
AU7583   AU        0.441765    0.353529    0.441765     0.007504
AU7584   AU        0.441765    0.382941    0.412353     0.007504
AU7585   AU        0.471176    0.353529    0.412353     0.007504
AU7586   AU        0.471176    0.382941    0.441765     0.007504
AU7587   AU        0.500588    0.353529    0.441765     0.007504
AU7588   AU        0.500588    0.382941    0.412353     0.007504
AU7589   AU        0.530000    0.353529    0.412353     0.007504
AU7590   AU        0.530000    0.382941    0.441765     0.007504
AU7591   AU        0.559412    0.353529    0.441765     0.007504
AU7592   AU        0.559412    0.382941    0.412353     0.007504
AU7593   AU        0.588824    0.353529    0.412353     0.007504
AU7594   AU        0.588824    0.382941    0.441765     0.007504
AU7595   AU        0.618235    0.353529    0.441765     0.007504
AU7596   AU        0.618235    0.382941    0.412353     0.007504
AU7597   AU        0.647647    0.353529    0.412353     0.007504
AU7598   AU        0.647647    0.382941    0.441765     0.007504
AU7599   AU        0.677059    0.353529    0.441765     0.007504
AU7600   AU        0.677059    0.382941    0.412353     0.007504
AU7601   AU        0.706471    0.353529    0.412353     0.007504
AU7602   AU        0.706471    0.382941    0.441765     0.007504
AU7603   AU        0.735882    0.353529    0.441765     0.007504
AU7604   AU        0.735882    0.382941    0.412353     0.007504
PD7605   PD        0.765294    0.353529    0.412353     0.005394
PD7606   PD        0.765294    0.382941    0.441765     0.005394
PD7607   PD        0.794706    0.353529    0.441765     0.005394
PD7608   PD        0.794706    0.382941    0.412353     0.005394
PD7626   PD        0.118235    0.441765    0.441765     0.005394
PD7627   PD        0.147647    0.412353    0.441765     0.005394
PD7628   PD        0.147647    0.441765    0.412353     0.005394
PD7629   PD        0.177059    0.412353    0.412353     0.005394
PD7630   PD        0.177059    0.441765    0.441765     0.005394
AU7631   AU        0.206471    0.412353    0.441765     0.007504
AU7632   AU        0.206471    0.441765    0.412353     0.007504
AU7633   AU        0.235882    0.412353    0.412353     0.007504
AU7634   AU        0.235882    0.441765    0.441765     0.007504
AU7635   AU        0.265294    0.412353    0.441765     0.007504
AU7636   AU        0.265294    0.441765    0.412353     0.007504
AU7637   AU        0.294706    0.412353    0.412353     0.007504
AU7638   AU        0.294706    0.441765    0.441765     0.007504
AU7639   AU        0.324118    0.412353    0.441765     0.007504
AU7640   AU        0.324118    0.441765    0.412353     0.007504
AU7641   AU        0.353529    0.412353    0.412353     0.007504
AU7642   AU        0.353529    0.441765    0.441765     0.007504
AU7643   AU        0.382941    0.412353    0.441765     0.007504
AU7644   AU        0.382941    0.441765    0.412353     0.007504
AU7645   AU        0.412353    0.412353    0.412353     0.007504
AU7646   AU        0.412353    0.441765    0.441765     0.007504
AU7647   AU        0.441765    0.412353    0.441765     0.007504
AU7648   AU        0.441765    0.441765    0.412353     0.007504
AU7649   AU        0.471176    0.412353    0.412353     0.007504
AU7650   AU        0.471176    0.441765    0.441765     0.007504
AU7651   AU        0.500588    0.412353    0.441765     0.007504
AU7652   AU        0.500588    0.441765    0.412353     0.007504
AU7653   AU        0.530000    0.412353    0.412353     0.007504
AU7654   AU        0.530000    0.441765    0.441765     0.007504
AU7655   AU        0.559412    0.412353    0.441765     0.007504
AU7656   AU        0.559412    0.441765    0.412353     0.007504
AU7657   AU        0.588824    0.412353    0.412353     0.007504
AU7658   AU        0.588824    0.441765    0.441765     0.007504
AU7659   AU        0.618235    0.412353    0.441765     0.007504
AU7660   AU        0.618235    0.441765    0.412353     0.007504
AU7661   AU        0.647647    0.412353    0.412353     0.007504
AU7662   AU        0.647647    0.441765    0.441765     0.007504
AU7663   AU        0.677059    0.412353    0.441765     0.007504
AU7664   AU        0.677059    0.441765    0.412353     0.007504
AU7665   AU        0.706471    0.412353    0.412353     0.007504
AU7666   AU        0.706471    0.441765    0.441765     0.007504
PD7667   PD        0.735882    0.412353    0.441765     0.005394
AU7668   AU        0.735882    0.441765    0.412353     0.007504
AU7669   AU        0.765294    0.412353    0.412353     0.007504
PD7670   PD        0.765294    0.441765    0.441765     0.005394
PD7671   PD        0.794706    0.412353    0.441765     0.005394
PD7672   PD        0.794706    0.441765    0.412353     0.005394
PD7674   PD        0.824118    0.441765    0.441765     0.005394
PD7689   PD        0.118235    0.471176    0.412353     0.005394
PD7690   PD        0.118235    0.500588    0.441765     0.005394
PD7691   PD        0.147647    0.471176    0.441765     0.005394
PD7692   PD        0.147647    0.500588    0.412353     0.005394
AU7693   AU        0.177059    0.471176    0.412353     0.007504
PD7694   PD        0.177059    0.500588    0.441765     0.005394
AU7695   AU        0.206471    0.471176    0.441765     0.007504
AU7696   AU        0.206471    0.500588    0.412353     0.007504
PD7697   PD        0.235882    0.471176    0.412353     0.005394
AU7698   AU        0.235882    0.500588    0.441765     0.007504
AU7699   AU        0.265294    0.471176    0.441765     0.007504
AU7700   AU        0.265294    0.500588    0.412353     0.007504
AU7701   AU        0.294706    0.471176    0.412353     0.007504
AU7702   AU        0.294706    0.500588    0.441765     0.007504
AU7703   AU        0.324118    0.471176    0.441765     0.007504
AU7704   AU        0.324118    0.500588    0.412353     0.007504
AU7705   AU        0.353529    0.471176    0.412353     0.007504
AU7706   AU        0.353529    0.500588    0.441765     0.007504
AU7707   AU        0.382941    0.471176    0.441765     0.007504
AU7708   AU        0.382941    0.500588    0.412353     0.007504
AU7709   AU        0.412353    0.471176    0.412353     0.007504
AU7710   AU        0.412353    0.500588    0.441765     0.007504
AU7711   AU        0.441765    0.471176    0.441765     0.007504
AU7712   AU        0.441765    0.500588    0.412353     0.007504
AU7713   AU        0.471176    0.471176    0.412353     0.007504
AU7714   AU        0.471176    0.500588    0.441765     0.007504
AU7715   AU        0.500588    0.471176    0.441765     0.007504
AU7716   AU        0.500588    0.500588    0.412353     0.007504
AU7717   AU        0.530000    0.471176    0.412353     0.007504
AU7718   AU        0.530000    0.500588    0.441765     0.007504
AU7719   AU        0.559412    0.471176    0.441765     0.007504
AU7720   AU        0.559412    0.500588    0.412353     0.007504
AU7721   AU        0.588824    0.471176    0.412353     0.007504
AU7722   AU        0.588824    0.500588    0.441765     0.007504
AU7723   AU        0.618235    0.471176    0.441765     0.007504
AU7724   AU        0.618235    0.500588    0.412353     0.007504
AU7725   AU        0.647647    0.471176    0.412353     0.007504
AU7726   AU        0.647647    0.500588    0.441765     0.007504
AU7727   AU        0.677059    0.471176    0.441765     0.007504
AU7728   AU        0.677059    0.500588    0.412353     0.007504
AU7729   AU        0.706471    0.471176    0.412353     0.007504
AU7730   AU        0.706471    0.500588    0.441765     0.007504
AU7731   AU        0.735882    0.471176    0.441765     0.007504
PD7732   PD        0.735882    0.500588    0.412353     0.005394
PD7733   PD        0.765294    0.471176    0.412353     0.005394
AU7734   AU        0.765294    0.500588    0.441765     0.007504
PD7735   PD        0.794706    0.471176    0.441765     0.005394
PD7736   PD        0.794706    0.500588    0.412353     0.005394
PD7737   PD        0.824118    0.471176    0.412353     0.005394
PD7738   PD        0.824118    0.500588    0.441765     0.005394
PD7755   PD        0.147647    0.530000    0.441765     0.005394
PD7756   PD        0.147647    0.559412    0.412353     0.005394
PD7757   PD        0.177059    0.530000    0.412353     0.005394
PD7758   PD        0.177059    0.559412    0.441765     0.005394
PD7759   PD        0.206471    0.530000    0.441765     0.005394
PD7760   PD        0.206471    0.559412    0.412353     0.005394
AU7761   AU        0.235882    0.530000    0.412353     0.007504
AU7762   AU        0.235882    0.559412    0.441765     0.007504
AU7763   AU        0.265294    0.530000    0.441765     0.007504
AU7764   AU        0.265294    0.559412    0.412353     0.007504
AU7765   AU        0.294706    0.530000    0.412353     0.007504
AU7766   AU        0.294706    0.559412    0.441765     0.007504
AU7767   AU        0.324118    0.530000    0.441765     0.007504
AU7768   AU        0.324118    0.559412    0.412353     0.007504
AU7769   AU        0.353529    0.530000    0.412353     0.007504
AU7770   AU        0.353529    0.559412    0.441765     0.007504
AU7771   AU        0.382941    0.530000    0.441765     0.007504
AU7772   AU        0.382941    0.559412    0.412353     0.007504
AU7773   AU        0.412353    0.530000    0.412353     0.007504
AU7774   AU        0.412353    0.559412    0.441765     0.007504
AU7775   AU        0.441765    0.530000    0.441765     0.007504
AU7776   AU        0.441765    0.559412    0.412353     0.007504
AU7777   AU        0.471176    0.530000    0.412353     0.007504
AU7778   AU        0.471176    0.559412    0.441765     0.007504
AU7779   AU        0.500588    0.530000    0.441765     0.007504
AU7780   AU        0.500588    0.559412    0.412353     0.007504
AU7781   AU        0.530000    0.530000    0.412353     0.007504
AU7782   AU        0.530000    0.559412    0.441765     0.007504
AU7783   AU        0.559412    0.530000    0.441765     0.007504
AU7784   AU        0.559412    0.559412    0.412353     0.007504
AU7785   AU        0.588824    0.530000    0.412353     0.007504
AU7786   AU        0.588824    0.559412    0.441765     0.007504
AU7787   AU        0.618235    0.530000    0.441765     0.007504
AU7788   AU        0.618235    0.559412    0.412353     0.007504
AU7789   AU        0.647647    0.530000    0.412353     0.007504
AU7790   AU        0.647647    0.559412    0.441765     0.007504
AU7791   AU        0.677059    0.530000    0.441765     0.007504
AU7792   AU        0.677059    0.559412    0.412353     0.007504
AU7793   AU        0.706471    0.530000    0.412353     0.007504
AU7794   AU        0.706471    0.559412    0.441765     0.007504
AU7795   AU        0.735882    0.530000    0.441765     0.007504
AU7796   AU        0.735882    0.559412    0.412353     0.007504
PD7797   PD        0.765294    0.530000    0.412353     0.005394
PD7798   PD        0.765294    0.559412    0.441765     0.005394
PD7799   PD        0.794706    0.530000    0.441765     0.005394
PD7800   PD        0.794706    0.559412    0.412353     0.005394
PD7819   PD        0.147647    0.588824    0.441765     0.005394
PD7820   PD        0.147647    0.618235    0.412353     0.005394
PD7821   PD        0.177059    0.588824    0.412353     0.005394
PD7822   PD        0.177059    0.618235    0.441765     0.005394
PD7823   PD        0.206471    0.588824    0.441765     0.005394
PD7824   PD        0.206471    0.618235    0.412353     0.005394
AU7825   AU        0.235882    0.588824    0.412353     0.007504
AU7826   AU        0.235882    0.618235    0.441765     0.007504
AU7827   AU        0.265294    0.588824    0.441765     0.007504
AU7828   AU        0.265294    0.618235    0.412353     0.007504
AU7829   AU        0.294706    0.588824    0.412353     0.007504
AU7830   AU        0.294706    0.618235    0.441765     0.007504
AU7831   AU        0.324118    0.588824    0.441765     0.007504
AU7832   AU        0.324118    0.618235    0.412353     0.007504
AU7833   AU        0.353529    0.588824    0.412353     0.007504
AU7834   AU        0.353529    0.618235    0.441765     0.007504
AU7835   AU        0.382941    0.588824    0.441765     0.007504
AU7836   AU        0.382941    0.618235    0.412353     0.007504
AU7837   AU        0.412353    0.588824    0.412353     0.007504
AU7838   AU        0.412353    0.618235    0.441765     0.007504
AU7839   AU        0.441765    0.588824    0.441765     0.007504
AU7840   AU        0.441765    0.618235    0.412353     0.007504
AU7841   AU        0.471176    0.588824    0.412353     0.007504
AU7842   AU        0.471176    0.618235    0.441765     0.007504
AU7843   AU        0.500588    0.588824    0.441765     0.007504
AU7844   AU        0.500588    0.618235    0.412353     0.007504
AU7845   AU        0.530000    0.588824    0.412353     0.007504
AU7846   AU        0.530000    0.618235    0.441765     0.007504
AU7847   AU        0.559412    0.588824    0.441765     0.007504
AU7848   AU        0.559412    0.618235    0.412353     0.007504
AU7849   AU        0.588824    0.588824    0.412353     0.007504
AU7850   AU        0.588824    0.618235    0.441765     0.007504
AU7851   AU        0.618235    0.588824    0.441765     0.007504
AU7852   AU        0.618235    0.618235    0.412353     0.007504
AU7853   AU        0.647647    0.588824    0.412353     0.007504
AU7854   AU        0.647647    0.618235    0.441765     0.007504
AU7855   AU        0.677059    0.588824    0.441765     0.007504
AU7856   AU        0.677059    0.618235    0.412353     0.007504
AU7857   AU        0.706471    0.588824    0.412353     0.007504
PD7858   PD        0.706471    0.618235    0.441765     0.005394
AU7859   AU        0.735882    0.588824    0.441765     0.007504
PD7860   PD        0.735882    0.618235    0.412353     0.005394
PD7861   PD        0.765294    0.588824    0.412353     0.005394
PD7862   PD        0.765294    0.618235    0.441765     0.005394
PD7863   PD        0.794706    0.588824    0.441765     0.005394
PD7864   PD        0.794706    0.618235    0.412353     0.005394
PD7885   PD        0.177059    0.647647    0.412353     0.005394
PD7886   PD        0.177059    0.677059    0.441765     0.005394
PD7887   PD        0.206471    0.647647    0.441765     0.005394
PD7888   PD        0.206471    0.677059    0.412353     0.005394
PD7889   PD        0.235882    0.647647    0.412353     0.005394
PD7890   PD        0.235882    0.677059    0.441765     0.005394
AU7891   AU        0.265294    0.647647    0.441765     0.007504
PD7892   PD        0.265294    0.677059    0.412353     0.005394
AU7893   AU        0.294706    0.647647    0.412353     0.007504
AU7894   AU        0.294706    0.677059    0.441765     0.007504
AU7895   AU        0.324118    0.647647    0.441765     0.007504
AU7896   AU        0.324118    0.677059    0.412353     0.007504
AU7897   AU        0.353529    0.647647    0.412353     0.007504
AU7898   AU        0.353529    0.677059    0.441765     0.007504
AU7899   AU        0.382941    0.647647    0.441765     0.007504
AU7900   AU        0.382941    0.677059    0.412353     0.007504
AU7901   AU        0.412353    0.647647    0.412353     0.007504
AU7902   AU        0.412353    0.677059    0.441765     0.007504
AU7903   AU        0.441765    0.647647    0.441765     0.007504
AU7904   AU        0.441765    0.677059    0.412353     0.007504
AU7905   AU        0.471176    0.647647    0.412353     0.007504
AU7906   AU        0.471176    0.677059    0.441765     0.007504
AU7907   AU        0.500588    0.647647    0.441765     0.007504
AU7908   AU        0.500588    0.677059    0.412353     0.007504
AU7909   AU        0.530000    0.647647    0.412353     0.007504
AU7910   AU        0.530000    0.677059    0.441765     0.007504
AU7911   AU        0.559412    0.647647    0.441765     0.007504
AU7912   AU        0.559412    0.677059    0.412353     0.007504
AU7913   AU        0.588824    0.647647    0.412353     0.007504
AU7914   AU        0.588824    0.677059    0.441765     0.007504
AU7915   AU        0.618235    0.647647    0.441765     0.007504
AU7916   AU        0.618235    0.677059    0.412353     0.007504
AU7917   AU        0.647647    0.647647    0.412353     0.007504
AU7918   AU        0.647647    0.677059    0.441765     0.007504
AU7919   AU        0.677059    0.647647    0.441765     0.007504
PD7920   PD        0.677059    0.677059    0.412353     0.005394
PD7921   PD        0.706471    0.647647    0.412353     0.005394
PD7922   PD        0.706471    0.677059    0.441765     0.005394
PD7923   PD        0.735882    0.647647    0.441765     0.005394
PD7924   PD        0.735882    0.677059    0.412353     0.005394
PD7925   PD        0.765294    0.647647    0.412353     0.005394
PD7926   PD        0.765294    0.677059    0.441765     0.005394
PD7951   PD        0.206471    0.706471    0.441765     0.005394
PD7953   PD        0.235882    0.706471    0.412353     0.005394
PD7954   PD        0.235882    0.735882    0.441765     0.005394
PD7955   PD        0.265294    0.706471    0.441765     0.005394
PD7956   PD        0.265294    0.735882    0.412353     0.005394
PD7957   PD        0.294706    0.706471    0.412353     0.005394
PD7958   PD        0.294706    0.735882    0.441765     0.005394
AU7959   AU        0.324118    0.706471    0.441765     0.007504
PD7960   PD        0.324118    0.735882    0.412353     0.005394
AU7961   AU        0.353529    0.706471    0.412353     0.007504
PD7962   PD        0.353529    0.735882    0.441765     0.005394
AU7963   AU        0.382941    0.706471    0.441765     0.007504
AU7964   AU        0.382941    0.735882    0.412353     0.007504
AU7965   AU        0.412353    0.706471    0.412353     0.007504
PD7966   PD        0.412353    0.735882    0.441765     0.005394
AU7967   AU        0.441765    0.706471    0.441765     0.007504
AU7968   AU        0.441765    0.735882    0.412353     0.007504
AU7969   AU        0.471176    0.706471    0.412353     0.007504
AU7970   AU        0.471176    0.735882    0.441765     0.007504
AU7971   AU        0.500588    0.706471    0.441765     0.007504
AU7972   AU        0.500588    0.735882    0.412353     0.007504
AU7973   AU        0.530000    0.706471    0.412353     0.007504
AU7974   AU        0.530000    0.735882    0.441765     0.007504
AU7975   AU        0.559412    0.706471    0.441765     0.007504
PD7976   PD        0.559412    0.735882    0.412353     0.005394
AU7977   AU        0.588824    0.706471    0.412353     0.007504
PD7978   PD        0.588824    0.735882    0.441765     0.005394
AU7979   AU        0.618235    0.706471    0.441765     0.007504
PD7980   PD        0.618235    0.735882    0.412353     0.005394
AU7981   AU        0.647647    0.706471    0.412353     0.007504
PD7982   PD        0.647647    0.735882    0.441765     0.005394
PD7983   PD        0.677059    0.706471    0.441765     0.005394
PD7984   PD        0.677059    0.735882    0.412353     0.005394
PD7985   PD        0.706471    0.706471    0.412353     0.005394
PD7986   PD        0.706471    0.735882    0.441765     0.005394
PD7987   PD        0.735882    0.706471    0.441765     0.005394
PD8019   PD        0.265294    0.765294    0.441765     0.005394
PD8021   PD        0.294706    0.765294    0.412353     0.005394
PD8023   PD        0.324118    0.765294    0.441765     0.005394
PD8024   PD        0.324118    0.794706    0.412353     0.005394
PD8025   PD        0.353529    0.765294    0.412353     0.005394
PD8026   PD        0.353529    0.794706    0.441765     0.005394
PD8027   PD        0.382941    0.765294    0.441765     0.005394
PD8028   PD        0.382941    0.794706    0.412353     0.005394
PD8029   PD        0.412353    0.765294    0.412353     0.005394
PD8030   PD        0.412353    0.794706    0.441765     0.005394
PD8031   PD        0.441765    0.765294    0.441765     0.005394
PD8032   PD        0.441765    0.794706    0.412353     0.005394
PD8033   PD        0.471176    0.765294    0.412353     0.005394
PD8034   PD        0.471176    0.794706    0.441765     0.005394
PD8035   PD        0.500588    0.765294    0.441765     0.005394
PD8036   PD        0.500588    0.794706    0.412353     0.005394
AU8037   AU        0.530000    0.765294    0.412353     0.007504
PD8038   PD        0.530000    0.794706    0.441765     0.005394
PD8039   PD        0.559412    0.765294    0.441765     0.005394
PD8040   PD        0.559412    0.794706    0.412353     0.005394
PD8041   PD        0.588824    0.765294    0.412353     0.005394
PD8042   PD        0.588824    0.794706    0.441765     0.005394
PD8043   PD        0.618235    0.765294    0.441765     0.005394
PD8044   PD        0.618235    0.794706    0.412353     0.005394
PD8045   PD        0.647647    0.765294    0.412353     0.005394
PD8047   PD        0.677059    0.765294    0.441765     0.005394
PD8095   PD        0.441765    0.824118    0.441765     0.005394
PD8097   PD        0.471176    0.824118    0.412353     0.005394
PD8099   PD        0.500588    0.824118    0.441765     0.005394
PD8344   PD        0.324118    0.147647    0.471176     0.005394
PD8346   PD        0.353529    0.147647    0.500588     0.005394
PD8348   PD        0.382941    0.147647    0.471176     0.005394
PD8349   PD        0.412353    0.118235    0.471176     0.005394
PD8350   PD        0.412353    0.147647    0.500588     0.005394
PD8351   PD        0.441765    0.118235    0.500588     0.005394
PD8352   PD        0.441765    0.147647    0.471176     0.005394
PD8353   PD        0.471176    0.118235    0.471176     0.005394
PD8354   PD        0.471176    0.147647    0.500588     0.005394
PD8355   PD        0.500588    0.118235    0.500588     0.005394
PD8356   PD        0.500588    0.147647    0.471176     0.005394
PD8357   PD        0.530000    0.118235    0.471176     0.005394
PD8358   PD        0.530000    0.147647    0.500588     0.005394
PD8360   PD        0.559412    0.147647    0.471176     0.005394
PD8362   PD        0.588824    0.147647    0.500588     0.005394
PD8364   PD        0.618235    0.147647    0.471176     0.005394
PD8402   PD        0.235882    0.206471    0.500588     0.005394
PD8403   PD        0.265294    0.177059    0.500588     0.005394
PD8404   PD        0.265294    0.206471    0.471176     0.005394
PD8405   PD        0.294706    0.177059    0.471176     0.005394
PD8406   PD        0.294706    0.206471    0.500588     0.005394
PD8407   PD        0.324118    0.177059    0.500588     0.005394
PD8408   PD        0.324118    0.206471    0.471176     0.005394
PD8409   PD        0.353529    0.177059    0.471176     0.005394
PD8410   PD        0.353529    0.206471    0.500588     0.005394
PD8411   PD        0.382941    0.177059    0.500588     0.005394
AU8412   AU        0.382941    0.206471    0.471176     0.007504
PD8413   PD        0.412353    0.177059    0.471176     0.005394
AU8414   AU        0.412353    0.206471    0.500588     0.007504
PD8415   PD        0.441765    0.177059    0.500588     0.005394
AU8416   AU        0.441765    0.206471    0.471176     0.007504
AU8417   AU        0.471176    0.177059    0.471176     0.007504
AU8418   AU        0.471176    0.206471    0.500588     0.007504
PD8419   PD        0.500588    0.177059    0.500588     0.005394
PD8420   PD        0.500588    0.206471    0.471176     0.005394
PD8421   PD        0.530000    0.177059    0.471176     0.005394
PD8422   PD        0.530000    0.206471    0.500588     0.005394
PD8423   PD        0.559412    0.177059    0.500588     0.005394
AU8424   AU        0.559412    0.206471    0.471176     0.007504
PD8425   PD        0.588824    0.177059    0.471176     0.005394
PD8426   PD        0.588824    0.206471    0.500588     0.005394
PD8427   PD        0.618235    0.177059    0.500588     0.005394
PD8428   PD        0.618235    0.206471    0.471176     0.005394
PD8429   PD        0.647647    0.177059    0.471176     0.005394
PD8430   PD        0.647647    0.206471    0.500588     0.005394
PD8431   PD        0.677059    0.177059    0.500588     0.005394
PD8432   PD        0.677059    0.206471    0.471176     0.005394
PD8434   PD        0.706471    0.206471    0.500588     0.005394
PD8462   PD        0.177059    0.265294    0.500588     0.005394
PD8463   PD        0.206471    0.235882    0.500588     0.005394
PD8464   PD        0.206471    0.265294    0.471176     0.005394
PD8465   PD        0.235882    0.235882    0.471176     0.005394
PD8466   PD        0.235882    0.265294    0.500588     0.005394
PD8467   PD        0.265294    0.235882    0.500588     0.005394
PD8468   PD        0.265294    0.265294    0.471176     0.005394
PD8469   PD        0.294706    0.235882    0.471176     0.005394
PD8470   PD        0.294706    0.265294    0.500588     0.005394
AU8471   AU        0.324118    0.235882    0.500588     0.007504
AU8472   AU        0.324118    0.265294    0.471176     0.007504
AU8473   AU        0.353529    0.235882    0.471176     0.007504
AU8474   AU        0.353529    0.265294    0.500588     0.007504
AU8475   AU        0.382941    0.235882    0.500588     0.007504
AU8476   AU        0.382941    0.265294    0.471176     0.007504
AU8477   AU        0.412353    0.235882    0.471176     0.007504
AU8478   AU        0.412353    0.265294    0.500588     0.007504
AU8479   AU        0.441765    0.235882    0.500588     0.007504
AU8480   AU        0.441765    0.265294    0.471176     0.007504
AU8481   AU        0.471176    0.235882    0.471176     0.007504
AU8482   AU        0.471176    0.265294    0.500588     0.007504
AU8483   AU        0.500588    0.235882    0.500588     0.007504
AU8484   AU        0.500588    0.265294    0.471176     0.007504
AU8485   AU        0.530000    0.235882    0.471176     0.007504
AU8486   AU        0.530000    0.265294    0.500588     0.007504
AU8487   AU        0.559412    0.235882    0.500588     0.007504
AU8488   AU        0.559412    0.265294    0.471176     0.007504
AU8489   AU        0.588824    0.235882    0.471176     0.007504
AU8490   AU        0.588824    0.265294    0.500588     0.007504
PD8491   PD        0.618235    0.235882    0.500588     0.005394
PD8492   PD        0.618235    0.265294    0.471176     0.005394
PD8493   PD        0.647647    0.235882    0.471176     0.005394
PD8494   PD        0.647647    0.265294    0.500588     0.005394
PD8495   PD        0.677059    0.235882    0.500588     0.005394
PD8496   PD        0.677059    0.265294    0.471176     0.005394
PD8497   PD        0.706471    0.235882    0.471176     0.005394
PD8498   PD        0.706471    0.265294    0.500588     0.005394
PD8499   PD        0.735882    0.235882    0.500588     0.005394
PD8500   PD        0.735882    0.265294    0.471176     0.005394
PD8502   PD        0.765294    0.265294    0.500588     0.005394
PD8524   PD        0.147647    0.324118    0.471176     0.005394
PD8525   PD        0.177059    0.294706    0.471176     0.005394
PD8526   PD        0.177059    0.324118    0.500588     0.005394
PD8527   PD        0.206471    0.294706    0.500588     0.005394
PD8528   PD        0.206471    0.324118    0.471176     0.005394
AU8529   AU        0.235882    0.294706    0.471176     0.007504
PD8530   PD        0.235882    0.324118    0.500588     0.005394
AU8531   AU        0.265294    0.294706    0.500588     0.007504
AU8532   AU        0.265294    0.324118    0.471176     0.007504
AU8533   AU        0.294706    0.294706    0.471176     0.007504
AU8534   AU        0.294706    0.324118    0.500588     0.007504
AU8535   AU        0.324118    0.294706    0.500588     0.007504
AU8536   AU        0.324118    0.324118    0.471176     0.007504
AU8537   AU        0.353529    0.294706    0.471176     0.007504
AU8538   AU        0.353529    0.324118    0.500588     0.007504
AU8539   AU        0.382941    0.294706    0.500588     0.007504
AU8540   AU        0.382941    0.324118    0.471176     0.007504
AU8541   AU        0.412353    0.294706    0.471176     0.007504
AU8542   AU        0.412353    0.324118    0.500588     0.007504
AU8543   AU        0.441765    0.294706    0.500588     0.007504
AU8544   AU        0.441765    0.324118    0.471176     0.007504
AU8545   AU        0.471176    0.294706    0.471176     0.007504
AU8546   AU        0.471176    0.324118    0.500588     0.007504
AU8547   AU        0.500588    0.294706    0.500588     0.007504
AU8548   AU        0.500588    0.324118    0.471176     0.007504
AU8549   AU        0.530000    0.294706    0.471176     0.007504
AU8550   AU        0.530000    0.324118    0.500588     0.007504
AU8551   AU        0.559412    0.294706    0.500588     0.007504
AU8552   AU        0.559412    0.324118    0.471176     0.007504
AU8553   AU        0.588824    0.294706    0.471176     0.007504
AU8554   AU        0.588824    0.324118    0.500588     0.007504
AU8555   AU        0.618235    0.294706    0.500588     0.007504
AU8556   AU        0.618235    0.324118    0.471176     0.007504
AU8557   AU        0.647647    0.294706    0.471176     0.007504
AU8558   AU        0.647647    0.324118    0.500588     0.007504
AU8559   AU        0.677059    0.294706    0.500588     0.007504
AU8560   AU        0.677059    0.324118    0.471176     0.007504
PD8561   PD        0.706471    0.294706    0.471176     0.005394
PD8562   PD        0.706471    0.324118    0.500588     0.005394
PD8563   PD        0.735882    0.294706    0.500588     0.005394
PD8564   PD        0.735882    0.324118    0.471176     0.005394
PD8565   PD        0.765294    0.294706    0.471176     0.005394
PD8566   PD        0.765294    0.324118    0.500588     0.005394
PD8568   PD        0.794706    0.324118    0.471176     0.005394
PD8587   PD        0.147647    0.353529    0.500588     0.005394
PD8588   PD        0.147647    0.382941    0.471176     0.005394
PD8589   PD        0.177059    0.353529    0.471176     0.005394
PD8590   PD        0.177059    0.382941    0.500588     0.005394
AU8591   AU        0.206471    0.353529    0.500588     0.007504
AU8592   AU        0.206471    0.382941    0.471176     0.007504
AU8593   AU        0.235882    0.353529    0.471176     0.007504
AU8594   AU        0.235882    0.382941    0.500588     0.007504
AU8595   AU        0.265294    0.353529    0.500588     0.007504
AU8596   AU        0.265294    0.382941    0.471176     0.007504
AU8597   AU        0.294706    0.353529    0.471176     0.007504
AU8598   AU        0.294706    0.382941    0.500588     0.007504
AU8599   AU        0.324118    0.353529    0.500588     0.007504
AU8600   AU        0.324118    0.382941    0.471176     0.007504
AU8601   AU        0.353529    0.353529    0.471176     0.007504
AU8602   AU        0.353529    0.382941    0.500588     0.007504
AU8603   AU        0.382941    0.353529    0.500588     0.007504
AU8604   AU        0.382941    0.382941    0.471176     0.007504
AU8605   AU        0.412353    0.353529    0.471176     0.007504
AU8606   AU        0.412353    0.382941    0.500588     0.007504
AU8607   AU        0.441765    0.353529    0.500588     0.007504
AU8608   AU        0.441765    0.382941    0.471176     0.007504
AU8609   AU        0.471176    0.353529    0.471176     0.007504
AU8610   AU        0.471176    0.382941    0.500588     0.007504
AU8611   AU        0.500588    0.353529    0.500588     0.007504
AU8612   AU        0.500588    0.382941    0.471176     0.007504
AU8613   AU        0.530000    0.353529    0.471176     0.007504
AU8614   AU        0.530000    0.382941    0.500588     0.007504
AU8615   AU        0.559412    0.353529    0.500588     0.007504
AU8616   AU        0.559412    0.382941    0.471176     0.007504
AU8617   AU        0.588824    0.353529    0.471176     0.007504
AU8618   AU        0.588824    0.382941    0.500588     0.007504
AU8619   AU        0.618235    0.353529    0.500588     0.007504
AU8620   AU        0.618235    0.382941    0.471176     0.007504
AU8621   AU        0.647647    0.353529    0.471176     0.007504
AU8622   AU        0.647647    0.382941    0.500588     0.007504
AU8623   AU        0.677059    0.353529    0.500588     0.007504
AU8624   AU        0.677059    0.382941    0.471176     0.007504
AU8625   AU        0.706471    0.353529    0.471176     0.007504
AU8626   AU        0.706471    0.382941    0.500588     0.007504
AU8627   AU        0.735882    0.353529    0.500588     0.007504
PD8628   PD        0.735882    0.382941    0.471176     0.005394
PD8629   PD        0.765294    0.353529    0.471176     0.005394
PD8630   PD        0.765294    0.382941    0.500588     0.005394
PD8631   PD        0.794706    0.353529    0.500588     0.005394
PD8632   PD        0.794706    0.382941    0.471176     0.005394
PD8649   PD        0.118235    0.412353    0.471176     0.005394
PD8650   PD        0.118235    0.441765    0.500588     0.005394
PD8651   PD        0.147647    0.412353    0.500588     0.005394
PD8652   PD        0.147647    0.441765    0.471176     0.005394
PD8653   PD        0.177059    0.412353    0.471176     0.005394
PD8654   PD        0.177059    0.441765    0.500588     0.005394
PD8655   PD        0.206471    0.412353    0.500588     0.005394
PD8656   PD        0.206471    0.441765    0.471176     0.005394
AU8657   AU        0.235882    0.412353    0.471176     0.007504
AU8658   AU        0.235882    0.441765    0.500588     0.007504
AU8659   AU        0.265294    0.412353    0.500588     0.007504
AU8660   AU        0.265294    0.441765    0.471176     0.007504
AU8661   AU        0.294706    0.412353    0.471176     0.007504
AU8662   AU        0.294706    0.441765    0.500588     0.007504
AU8663   AU        0.324118    0.412353    0.500588     0.007504
AU8664   AU        0.324118    0.441765    0.471176     0.007504
AU8665   AU        0.353529    0.412353    0.471176     0.007504
AU8666   AU        0.353529    0.441765    0.500588     0.007504
AU8667   AU        0.382941    0.412353    0.500588     0.007504
AU8668   AU        0.382941    0.441765    0.471176     0.007504
AU8669   AU        0.412353    0.412353    0.471176     0.007504
AU8670   AU        0.412353    0.441765    0.500588     0.007504
AU8671   AU        0.441765    0.412353    0.500588     0.007504
AU8672   AU        0.441765    0.441765    0.471176     0.007504
AU8673   AU        0.471176    0.412353    0.471176     0.007504
AU8674   AU        0.471176    0.441765    0.500588     0.007504
AU8675   AU        0.500588    0.412353    0.500588     0.007504
AU8676   AU        0.500588    0.441765    0.471176     0.007504
AU8677   AU        0.530000    0.412353    0.471176     0.007504
AU8678   AU        0.530000    0.441765    0.500588     0.007504
AU8679   AU        0.559412    0.412353    0.500588     0.007504
AU8680   AU        0.559412    0.441765    0.471176     0.007504
AU8681   AU        0.588824    0.412353    0.471176     0.007504
AU8682   AU        0.588824    0.441765    0.500588     0.007504
AU8683   AU        0.618235    0.412353    0.500588     0.007504
AU8684   AU        0.618235    0.441765    0.471176     0.007504
AU8685   AU        0.647647    0.412353    0.471176     0.007504
AU8686   AU        0.647647    0.441765    0.500588     0.007504
AU8687   AU        0.677059    0.412353    0.500588     0.007504
AU8688   AU        0.677059    0.441765    0.471176     0.007504
AU8689   AU        0.706471    0.412353    0.471176     0.007504
AU8690   AU        0.706471    0.441765    0.500588     0.007504
AU8691   AU        0.735882    0.412353    0.500588     0.007504
PD8692   PD        0.735882    0.441765    0.471176     0.005394
PD8693   PD        0.765294    0.412353    0.471176     0.005394
AU8694   AU        0.765294    0.441765    0.500588     0.007504
PD8695   PD        0.794706    0.412353    0.500588     0.005394
PD8696   PD        0.794706    0.441765    0.471176     0.005394
PD8697   PD        0.824118    0.412353    0.471176     0.005394
PD8698   PD        0.824118    0.441765    0.500588     0.005394
PD8713   PD        0.118235    0.471176    0.471176     0.005394
PD8714   PD        0.118235    0.500588    0.500588     0.005394
PD8715   PD        0.147647    0.471176    0.500588     0.005394
PD8716   PD        0.147647    0.500588    0.471176     0.005394
AU8717   AU        0.177059    0.471176    0.471176     0.007504
PD8718   PD        0.177059    0.500588    0.500588     0.005394
AU8719   AU        0.206471    0.471176    0.500588     0.007504
PD8720   PD        0.206471    0.500588    0.471176     0.005394
AU8721   AU        0.235882    0.471176    0.471176     0.007504
AU8722   AU        0.235882    0.500588    0.500588     0.007504
AU8723   AU        0.265294    0.471176    0.500588     0.007504
AU8724   AU        0.265294    0.500588    0.471176     0.007504
AU8725   AU        0.294706    0.471176    0.471176     0.007504
AU8726   AU        0.294706    0.500588    0.500588     0.007504
AU8727   AU        0.324118    0.471176    0.500588     0.007504
AU8728   AU        0.324118    0.500588    0.471176     0.007504
AU8729   AU        0.353529    0.471176    0.471176     0.007504
AU8730   AU        0.353529    0.500588    0.500588     0.007504
AU8731   AU        0.382941    0.471176    0.500588     0.007504
AU8732   AU        0.382941    0.500588    0.471176     0.007504
AU8733   AU        0.412353    0.471176    0.471176     0.007504
AU8734   AU        0.412353    0.500588    0.500588     0.007504
AU8735   AU        0.441765    0.471176    0.500588     0.007504
AU8736   AU        0.441765    0.500588    0.471176     0.007504
AU8737   AU        0.471176    0.471176    0.471176     0.007504
AU8738   AU        0.471176    0.500588    0.500588     0.007504
AU8739   AU        0.500588    0.471176    0.500588     0.007504
AU8740   AU        0.500588    0.500588    0.471176     0.007504
AU8741   AU        0.530000    0.471176    0.471176     0.007504
AU8742   AU        0.530000    0.500588    0.500588     0.007504
AU8743   AU        0.559412    0.471176    0.500588     0.007504
AU8744   AU        0.559412    0.500588    0.471176     0.007504
AU8745   AU        0.588824    0.471176    0.471176     0.007504
AU8746   AU        0.588824    0.500588    0.500588     0.007504
AU8747   AU        0.618235    0.471176    0.500588     0.007504
AU8748   AU        0.618235    0.500588    0.471176     0.007504
AU8749   AU        0.647647    0.471176    0.471176     0.007504
AU8750   AU        0.647647    0.500588    0.500588     0.007504
AU8751   AU        0.677059    0.471176    0.500588     0.007504
AU8752   AU        0.677059    0.500588    0.471176     0.007504
AU8753   AU        0.706471    0.471176    0.471176     0.007504
AU8754   AU        0.706471    0.500588    0.500588     0.007504
AU8755   AU        0.735882    0.471176    0.500588     0.007504
AU8756   AU        0.735882    0.500588    0.471176     0.007504
PD8757   PD        0.765294    0.471176    0.471176     0.005394
PD8758   PD        0.765294    0.500588    0.500588     0.005394
PD8759   PD        0.794706    0.471176    0.500588     0.005394
PD8760   PD        0.794706    0.500588    0.471176     0.005394
PD8761   PD        0.824118    0.471176    0.471176     0.005394
PD8762   PD        0.824118    0.500588    0.500588     0.005394
PD8777   PD        0.118235    0.530000    0.471176     0.005394
PD8779   PD        0.147647    0.530000    0.500588     0.005394
PD8780   PD        0.147647    0.559412    0.471176     0.005394
AU8781   AU        0.177059    0.530000    0.471176     0.007504
PD8782   PD        0.177059    0.559412    0.500588     0.005394
AU8783   AU        0.206471    0.530000    0.500588     0.007504
AU8784   AU        0.206471    0.559412    0.471176     0.007504
AU8785   AU        0.235882    0.530000    0.471176     0.007504
AU8786   AU        0.235882    0.559412    0.500588     0.007504
AU8787   AU        0.265294    0.530000    0.500588     0.007504
AU8788   AU        0.265294    0.559412    0.471176     0.007504
AU8789   AU        0.294706    0.530000    0.471176     0.007504
AU8790   AU        0.294706    0.559412    0.500588     0.007504
AU8791   AU        0.324118    0.530000    0.500588     0.007504
AU8792   AU        0.324118    0.559412    0.471176     0.007504
AU8793   AU        0.353529    0.530000    0.471176     0.007504
AU8794   AU        0.353529    0.559412    0.500588     0.007504
AU8795   AU        0.382941    0.530000    0.500588     0.007504
AU8796   AU        0.382941    0.559412    0.471176     0.007504
AU8797   AU        0.412353    0.530000    0.471176     0.007504
AU8798   AU        0.412353    0.559412    0.500588     0.007504
AU8799   AU        0.441765    0.530000    0.500588     0.007504
AU8800   AU        0.441765    0.559412    0.471176     0.007504
AU8801   AU        0.471176    0.530000    0.471176     0.007504
AU8802   AU        0.471176    0.559412    0.500588     0.007504
AU8803   AU        0.500588    0.530000    0.500588     0.007504
AU8804   AU        0.500588    0.559412    0.471176     0.007504
AU8805   AU        0.530000    0.530000    0.471176     0.007504
AU8806   AU        0.530000    0.559412    0.500588     0.007504
AU8807   AU        0.559412    0.530000    0.500588     0.007504
AU8808   AU        0.559412    0.559412    0.471176     0.007504
AU8809   AU        0.588824    0.530000    0.471176     0.007504
AU8810   AU        0.588824    0.559412    0.500588     0.007504
AU8811   AU        0.618235    0.530000    0.500588     0.007504
AU8812   AU        0.618235    0.559412    0.471176     0.007504
AU8813   AU        0.647647    0.530000    0.471176     0.007504
AU8814   AU        0.647647    0.559412    0.500588     0.007504
AU8815   AU        0.677059    0.530000    0.500588     0.007504
AU8816   AU        0.677059    0.559412    0.471176     0.007504
AU8817   AU        0.706471    0.530000    0.471176     0.007504
AU8818   AU        0.706471    0.559412    0.500588     0.007504
AU8819   AU        0.735882    0.530000    0.500588     0.007504
AU8820   AU        0.735882    0.559412    0.471176     0.007504
PD8821   PD        0.765294    0.530000    0.471176     0.005394
PD8822   PD        0.765294    0.559412    0.500588     0.005394
PD8823   PD        0.794706    0.530000    0.500588     0.005394
PD8824   PD        0.794706    0.559412    0.471176     0.005394
PD8825   PD        0.824118    0.530000    0.471176     0.005394
PD8843   PD        0.147647    0.588824    0.500588     0.005394
PD8844   PD        0.147647    0.618235    0.471176     0.005394
PD8845   PD        0.177059    0.588824    0.471176     0.005394
PD8846   PD        0.177059    0.618235    0.500588     0.005394
PD8847   PD        0.206471    0.588824    0.500588     0.005394
PD8848   PD        0.206471    0.618235    0.471176     0.005394
AU8849   AU        0.235882    0.588824    0.471176     0.007504
AU8850   AU        0.235882    0.618235    0.500588     0.007504
AU8851   AU        0.265294    0.588824    0.500588     0.007504
AU8852   AU        0.265294    0.618235    0.471176     0.007504
AU8853   AU        0.294706    0.588824    0.471176     0.007504
AU8854   AU        0.294706    0.618235    0.500588     0.007504
AU8855   AU        0.324118    0.588824    0.500588     0.007504
AU8856   AU        0.324118    0.618235    0.471176     0.007504
AU8857   AU        0.353529    0.588824    0.471176     0.007504
AU8858   AU        0.353529    0.618235    0.500588     0.007504
AU8859   AU        0.382941    0.588824    0.500588     0.007504
AU8860   AU        0.382941    0.618235    0.471176     0.007504
AU8861   AU        0.412353    0.588824    0.471176     0.007504
AU8862   AU        0.412353    0.618235    0.500588     0.007504
AU8863   AU        0.441765    0.588824    0.500588     0.007504
AU8864   AU        0.441765    0.618235    0.471176     0.007504
AU8865   AU        0.471176    0.588824    0.471176     0.007504
AU8866   AU        0.471176    0.618235    0.500588     0.007504
AU8867   AU        0.500588    0.588824    0.500588     0.007504
AU8868   AU        0.500588    0.618235    0.471176     0.007504
AU8869   AU        0.530000    0.588824    0.471176     0.007504
AU8870   AU        0.530000    0.618235    0.500588     0.007504
AU8871   AU        0.559412    0.588824    0.500588     0.007504
AU8872   AU        0.559412    0.618235    0.471176     0.007504
AU8873   AU        0.588824    0.588824    0.471176     0.007504
AU8874   AU        0.588824    0.618235    0.500588     0.007504
AU8875   AU        0.618235    0.588824    0.500588     0.007504
AU8876   AU        0.618235    0.618235    0.471176     0.007504
AU8877   AU        0.647647    0.588824    0.471176     0.007504
AU8878   AU        0.647647    0.618235    0.500588     0.007504
AU8879   AU        0.677059    0.588824    0.500588     0.007504
AU8880   AU        0.677059    0.618235    0.471176     0.007504
PD8881   PD        0.706471    0.588824    0.471176     0.005394
PD8882   PD        0.706471    0.618235    0.500588     0.005394
AU8883   AU        0.735882    0.588824    0.500588     0.007504
PD8884   PD        0.735882    0.618235    0.471176     0.005394
PD8885   PD        0.765294    0.588824    0.471176     0.005394
PD8886   PD        0.765294    0.618235    0.500588     0.005394
PD8887   PD        0.794706    0.588824    0.500588     0.005394
PD8888   PD        0.794706    0.618235    0.471176     0.005394
PD8909   PD        0.177059    0.647647    0.471176     0.005394
PD8910   PD        0.177059    0.677059    0.500588     0.005394
PD8911   PD        0.206471    0.647647    0.500588     0.005394
PD8912   PD        0.206471    0.677059    0.471176     0.005394
PD8913   PD        0.235882    0.647647    0.471176     0.005394
AU8914   AU        0.235882    0.677059    0.500588     0.007504
AU8915   AU        0.265294    0.647647    0.500588     0.007504
AU8916   AU        0.265294    0.677059    0.471176     0.007504
AU8917   AU        0.294706    0.647647    0.471176     0.007504
AU8918   AU        0.294706    0.677059    0.500588     0.007504
AU8919   AU        0.324118    0.647647    0.500588     0.007504
AU8920   AU        0.324118    0.677059    0.471176     0.007504
AU8921   AU        0.353529    0.647647    0.471176     0.007504
AU8922   AU        0.353529    0.677059    0.500588     0.007504
AU8923   AU        0.382941    0.647647    0.500588     0.007504
AU8924   AU        0.382941    0.677059    0.471176     0.007504
AU8925   AU        0.412353    0.647647    0.471176     0.007504
AU8926   AU        0.412353    0.677059    0.500588     0.007504
AU8927   AU        0.441765    0.647647    0.500588     0.007504
AU8928   AU        0.441765    0.677059    0.471176     0.007504
AU8929   AU        0.471176    0.647647    0.471176     0.007504
AU8930   AU        0.471176    0.677059    0.500588     0.007504
AU8931   AU        0.500588    0.647647    0.500588     0.007504
AU8932   AU        0.500588    0.677059    0.471176     0.007504
AU8933   AU        0.530000    0.647647    0.471176     0.007504
AU8934   AU        0.530000    0.677059    0.500588     0.007504
AU8935   AU        0.559412    0.647647    0.500588     0.007504
AU8936   AU        0.559412    0.677059    0.471176     0.007504
AU8937   AU        0.588824    0.647647    0.471176     0.007504
AU8938   AU        0.588824    0.677059    0.500588     0.007504
AU8939   AU        0.618235    0.647647    0.500588     0.007504
AU8940   AU        0.618235    0.677059    0.471176     0.007504
AU8941   AU        0.647647    0.647647    0.471176     0.007504
AU8942   AU        0.647647    0.677059    0.500588     0.007504
AU8943   AU        0.677059    0.647647    0.500588     0.007504
AU8944   AU        0.677059    0.677059    0.471176     0.007504
PD8945   PD        0.706471    0.647647    0.471176     0.005394
PD8946   PD        0.706471    0.677059    0.500588     0.005394
PD8947   PD        0.735882    0.647647    0.500588     0.005394
PD8948   PD        0.735882    0.677059    0.471176     0.005394
PD8949   PD        0.765294    0.647647    0.471176     0.005394
PD8950   PD        0.765294    0.677059    0.500588     0.005394
PD8975   PD        0.206471    0.706471    0.500588     0.005394
PD8977   PD        0.235882    0.706471    0.471176     0.005394
PD8978   PD        0.235882    0.735882    0.500588     0.005394
PD8979   PD        0.265294    0.706471    0.500588     0.005394
PD8980   PD        0.265294    0.735882    0.471176     0.005394
PD8981   PD        0.294706    0.706471    0.471176     0.005394
PD8982   PD        0.294706    0.735882    0.500588     0.005394
AU8983   AU        0.324118    0.706471    0.500588     0.007504
PD8984   PD        0.324118    0.735882    0.471176     0.005394
AU8985   AU        0.353529    0.706471    0.471176     0.007504
AU8986   AU        0.353529    0.735882    0.500588     0.007504
AU8987   AU        0.382941    0.706471    0.500588     0.007504
AU8988   AU        0.382941    0.735882    0.471176     0.007504
AU8989   AU        0.412353    0.706471    0.471176     0.007504
AU8990   AU        0.412353    0.735882    0.500588     0.007504
AU8991   AU        0.441765    0.706471    0.500588     0.007504
AU8992   AU        0.441765    0.735882    0.471176     0.007504
AU8993   AU        0.471176    0.706471    0.471176     0.007504
AU8994   AU        0.471176    0.735882    0.500588     0.007504
AU8995   AU        0.500588    0.706471    0.500588     0.007504
PD8996   PD        0.500588    0.735882    0.471176     0.005394
AU8997   AU        0.530000    0.706471    0.471176     0.007504
AU8998   AU        0.530000    0.735882    0.500588     0.007504
AU8999   AU        0.559412    0.706471    0.500588     0.007504
PD9000   PD        0.559412    0.735882    0.471176     0.005394
AU9001   AU        0.588824    0.706471    0.471176     0.007504
AU9002   AU        0.588824    0.735882    0.500588     0.007504
AU9003   AU        0.618235    0.706471    0.500588     0.007504
PD9004   PD        0.618235    0.735882    0.471176     0.005394
AU9005   AU        0.647647    0.706471    0.471176     0.007504
PD9006   PD        0.647647    0.735882    0.500588     0.005394
PD9007   PD        0.677059    0.706471    0.500588     0.005394
PD9008   PD        0.677059    0.735882    0.471176     0.005394
PD9009   PD        0.706471    0.706471    0.471176     0.005394
PD9010   PD        0.706471    0.735882    0.500588     0.005394
PD9011   PD        0.735882    0.706471    0.500588     0.005394
PD9043   PD        0.265294    0.765294    0.500588     0.005394
PD9045   PD        0.294706    0.765294    0.471176     0.005394
PD9047   PD        0.324118    0.765294    0.500588     0.005394
PD9048   PD        0.324118    0.794706    0.471176     0.005394
PD9049   PD        0.353529    0.765294    0.471176     0.005394
PD9050   PD        0.353529    0.794706    0.500588     0.005394
PD9051   PD        0.382941    0.765294    0.500588     0.005394
PD9052   PD        0.382941    0.794706    0.471176     0.005394
PD9053   PD        0.412353    0.765294    0.471176     0.005394
PD9054   PD        0.412353    0.794706    0.500588     0.005394
PD9055   PD        0.441765    0.765294    0.500588     0.005394
PD9056   PD        0.441765    0.794706    0.471176     0.005394
PD9057   PD        0.471176    0.765294    0.471176     0.005394
PD9058   PD        0.471176    0.794706    0.500588     0.005394
PD9059   PD        0.500588    0.765294    0.500588     0.005394
PD9060   PD        0.500588    0.794706    0.471176     0.005394
PD9061   PD        0.530000    0.765294    0.471176     0.005394
PD9062   PD        0.530000    0.794706    0.500588     0.005394
PD9063   PD        0.559412    0.765294    0.500588     0.005394
PD9064   PD        0.559412    0.794706    0.471176     0.005394
PD9065   PD        0.588824    0.765294    0.471176     0.005394
PD9066   PD        0.588824    0.794706    0.500588     0.005394
PD9067   PD        0.618235    0.765294    0.500588     0.005394
PD9068   PD        0.618235    0.794706    0.471176     0.005394
PD9069   PD        0.647647    0.765294    0.471176     0.005394
PD9071   PD        0.677059    0.765294    0.500588     0.005394
PD9117   PD        0.412353    0.824118    0.471176     0.005394
PD9119   PD        0.441765    0.824118    0.500588     0.005394
PD9121   PD        0.471176    0.824118    0.471176     0.005394
PD9123   PD        0.500588    0.824118    0.500588     0.005394
PD9125   PD        0.530000    0.824118    0.471176     0.005394
PD9368   PD        0.324118    0.147647    0.530000     0.005394
PD9370   PD        0.353529    0.147647    0.559412     0.005394
PD9372   PD        0.382941    0.147647    0.530000     0.005394
PD9374   PD        0.412353    0.147647    0.559412     0.005394
PD9376   PD        0.441765    0.147647    0.530000     0.005394
PD9377   PD        0.471176    0.118235    0.530000     0.005394
PD9378   PD        0.471176    0.147647    0.559412     0.005394
PD9380   PD        0.500588    0.147647    0.530000     0.005394
PD9382   PD        0.530000    0.147647    0.559412     0.005394
PD9384   PD        0.559412    0.147647    0.530000     0.005394
PD9386   PD        0.588824    0.147647    0.559412     0.005394
PD9388   PD        0.618235    0.147647    0.530000     0.005394
PD9428   PD        0.265294    0.206471    0.530000     0.005394
PD9429   PD        0.294706    0.177059    0.530000     0.005394
PD9430   PD        0.294706    0.206471    0.559412     0.005394
PD9431   PD        0.324118    0.177059    0.559412     0.005394
PD9432   PD        0.324118    0.206471    0.530000     0.005394
PD9433   PD        0.353529    0.177059    0.530000     0.005394
PD9434   PD        0.353529    0.206471    0.559412     0.005394
PD9435   PD        0.382941    0.177059    0.559412     0.005394
PD9436   PD        0.382941    0.206471    0.530000     0.005394
PD9437   PD        0.412353    0.177059    0.530000     0.005394
AU9438   AU        0.412353    0.206471    0.559412     0.007504
PD9439   PD        0.441765    0.177059    0.559412     0.005394
AU9440   AU        0.441765    0.206471    0.530000     0.007504
PD9441   PD        0.471176    0.177059    0.530000     0.005394
AU9442   AU        0.471176    0.206471    0.559412     0.007504
PD9443   PD        0.500588    0.177059    0.559412     0.005394
AU9444   AU        0.500588    0.206471    0.530000     0.007504
PD9445   PD        0.530000    0.177059    0.530000     0.005394
AU9446   AU        0.530000    0.206471    0.559412     0.007504
PD9447   PD        0.559412    0.177059    0.559412     0.005394
AU9448   AU        0.559412    0.206471    0.530000     0.007504
PD9449   PD        0.588824    0.177059    0.530000     0.005394
PD9450   PD        0.588824    0.206471    0.559412     0.005394
PD9451   PD        0.618235    0.177059    0.559412     0.005394
PD9452   PD        0.618235    0.206471    0.530000     0.005394
PD9453   PD        0.647647    0.177059    0.530000     0.005394
PD9454   PD        0.647647    0.206471    0.559412     0.005394
PD9456   PD        0.677059    0.206471    0.530000     0.005394
PD9488   PD        0.206471    0.265294    0.530000     0.005394
PD9489   PD        0.235882    0.235882    0.530000     0.005394
PD9490   PD        0.235882    0.265294    0.559412     0.005394
PD9491   PD        0.265294    0.235882    0.559412     0.005394
PD9492   PD        0.265294    0.265294    0.530000     0.005394
PD9493   PD        0.294706    0.235882    0.530000     0.005394
AU9494   AU        0.294706    0.265294    0.559412     0.007504
AU9495   AU        0.324118    0.235882    0.559412     0.007504
AU9496   AU        0.324118    0.265294    0.530000     0.007504
AU9497   AU        0.353529    0.235882    0.530000     0.007504
AU9498   AU        0.353529    0.265294    0.559412     0.007504
AU9499   AU        0.382941    0.235882    0.559412     0.007504
AU9500   AU        0.382941    0.265294    0.530000     0.007504
AU9501   AU        0.412353    0.235882    0.530000     0.007504
AU9502   AU        0.412353    0.265294    0.559412     0.007504
AU9503   AU        0.441765    0.235882    0.559412     0.007504
AU9504   AU        0.441765    0.265294    0.530000     0.007504
AU9505   AU        0.471176    0.235882    0.530000     0.007504
AU9506   AU        0.471176    0.265294    0.559412     0.007504
AU9507   AU        0.500588    0.235882    0.559412     0.007504
AU9508   AU        0.500588    0.265294    0.530000     0.007504
AU9509   AU        0.530000    0.235882    0.530000     0.007504
AU9510   AU        0.530000    0.265294    0.559412     0.007504
AU9511   AU        0.559412    0.235882    0.559412     0.007504
AU9512   AU        0.559412    0.265294    0.530000     0.007504
AU9513   AU        0.588824    0.235882    0.530000     0.007504
AU9514   AU        0.588824    0.265294    0.559412     0.007504
AU9515   AU        0.618235    0.235882    0.559412     0.007504
AU9516   AU        0.618235    0.265294    0.530000     0.007504
PD9517   PD        0.647647    0.235882    0.530000     0.005394
AU9518   AU        0.647647    0.265294    0.559412     0.007504
PD9519   PD        0.677059    0.235882    0.559412     0.005394
PD9520   PD        0.677059    0.265294    0.530000     0.005394
PD9521   PD        0.706471    0.235882    0.530000     0.005394
PD9522   PD        0.706471    0.265294    0.559412     0.005394
PD9524   PD        0.735882    0.265294    0.530000     0.005394
PD9548   PD        0.147647    0.324118    0.530000     0.005394
PD9549   PD        0.177059    0.294706    0.530000     0.005394
PD9550   PD        0.177059    0.324118    0.559412     0.005394
PD9551   PD        0.206471    0.294706    0.559412     0.005394
PD9552   PD        0.206471    0.324118    0.530000     0.005394
PD9553   PD        0.235882    0.294706    0.530000     0.005394
AU9554   AU        0.235882    0.324118    0.559412     0.007504
AU9555   AU        0.265294    0.294706    0.559412     0.007504
AU9556   AU        0.265294    0.324118    0.530000     0.007504
AU9557   AU        0.294706    0.294706    0.530000     0.007504
AU9558   AU        0.294706    0.324118    0.559412     0.007504
AU9559   AU        0.324118    0.294706    0.559412     0.007504
AU9560   AU        0.324118    0.324118    0.530000     0.007504
AU9561   AU        0.353529    0.294706    0.530000     0.007504
AU9562   AU        0.353529    0.324118    0.559412     0.007504
AU9563   AU        0.382941    0.294706    0.559412     0.007504
AU9564   AU        0.382941    0.324118    0.530000     0.007504
AU9565   AU        0.412353    0.294706    0.530000     0.007504
AU9566   AU        0.412353    0.324118    0.559412     0.007504
AU9567   AU        0.441765    0.294706    0.559412     0.007504
AU9568   AU        0.441765    0.324118    0.530000     0.007504
AU9569   AU        0.471176    0.294706    0.530000     0.007504
AU9570   AU        0.471176    0.324118    0.559412     0.007504
AU9571   AU        0.500588    0.294706    0.559412     0.007504
AU9572   AU        0.500588    0.324118    0.530000     0.007504
AU9573   AU        0.530000    0.294706    0.530000     0.007504
AU9574   AU        0.530000    0.324118    0.559412     0.007504
AU9575   AU        0.559412    0.294706    0.559412     0.007504
AU9576   AU        0.559412    0.324118    0.530000     0.007504
AU9577   AU        0.588824    0.294706    0.530000     0.007504
AU9578   AU        0.588824    0.324118    0.559412     0.007504
AU9579   AU        0.618235    0.294706    0.559412     0.007504
AU9580   AU        0.618235    0.324118    0.530000     0.007504
AU9581   AU        0.647647    0.294706    0.530000     0.007504
AU9582   AU        0.647647    0.324118    0.559412     0.007504
PD9583   PD        0.677059    0.294706    0.559412     0.005394
AU9584   AU        0.677059    0.324118    0.530000     0.007504
AU9585   AU        0.706471    0.294706    0.530000     0.007504
PD9586   PD        0.706471    0.324118    0.559412     0.005394
PD9587   PD        0.735882    0.294706    0.559412     0.005394
PD9588   PD        0.735882    0.324118    0.530000     0.005394
PD9589   PD        0.765294    0.294706    0.530000     0.005394
PD9590   PD        0.765294    0.324118    0.559412     0.005394
PD9592   PD        0.794706    0.324118    0.530000     0.005394
PD9611   PD        0.147647    0.353529    0.559412     0.005394
PD9612   PD        0.147647    0.382941    0.530000     0.005394
PD9613   PD        0.177059    0.353529    0.530000     0.005394
PD9614   PD        0.177059    0.382941    0.559412     0.005394
PD9615   PD        0.206471    0.353529    0.559412     0.005394
PD9616   PD        0.206471    0.382941    0.530000     0.005394
AU9617   AU        0.235882    0.353529    0.530000     0.007504
AU9618   AU        0.235882    0.382941    0.559412     0.007504
AU9619   AU        0.265294    0.353529    0.559412     0.007504
AU9620   AU        0.265294    0.382941    0.530000     0.007504
AU9621   AU        0.294706    0.353529    0.530000     0.007504
AU9622   AU        0.294706    0.382941    0.559412     0.007504
AU9623   AU        0.324118    0.353529    0.559412     0.007504
AU9624   AU        0.324118    0.382941    0.530000     0.007504
AU9625   AU        0.353529    0.353529    0.530000     0.007504
AU9626   AU        0.353529    0.382941    0.559412     0.007504
AU9627   AU        0.382941    0.353529    0.559412     0.007504
AU9628   AU        0.382941    0.382941    0.530000     0.007504
AU9629   AU        0.412353    0.353529    0.530000     0.007504
AU9630   AU        0.412353    0.382941    0.559412     0.007504
AU9631   AU        0.441765    0.353529    0.559412     0.007504
AU9632   AU        0.441765    0.382941    0.530000     0.007504
AU9633   AU        0.471176    0.353529    0.530000     0.007504
AU9634   AU        0.471176    0.382941    0.559412     0.007504
AU9635   AU        0.500588    0.353529    0.559412     0.007504
AU9636   AU        0.500588    0.382941    0.530000     0.007504
AU9637   AU        0.530000    0.353529    0.530000     0.007504
AU9638   AU        0.530000    0.382941    0.559412     0.007504
AU9639   AU        0.559412    0.353529    0.559412     0.007504
AU9640   AU        0.559412    0.382941    0.530000     0.007504
AU9641   AU        0.588824    0.353529    0.530000     0.007504
AU9642   AU        0.588824    0.382941    0.559412     0.007504
AU9643   AU        0.618235    0.353529    0.559412     0.007504
AU9644   AU        0.618235    0.382941    0.530000     0.007504
AU9645   AU        0.647647    0.353529    0.530000     0.007504
AU9646   AU        0.647647    0.382941    0.559412     0.007504
AU9647   AU        0.677059    0.353529    0.559412     0.007504
AU9648   AU        0.677059    0.382941    0.530000     0.007504
PD9649   PD        0.706471    0.353529    0.530000     0.005394
AU9650   AU        0.706471    0.382941    0.559412     0.007504
PD9651   PD        0.735882    0.353529    0.559412     0.005394
PD9652   PD        0.735882    0.382941    0.530000     0.005394
PD9653   PD        0.765294    0.353529    0.530000     0.005394
PD9654   PD        0.765294    0.382941    0.559412     0.005394
PD9655   PD        0.794706    0.353529    0.559412     0.005394
PD9656   PD        0.794706    0.382941    0.530000     0.005394
PD9675   PD        0.147647    0.412353    0.559412     0.005394
PD9676   PD        0.147647    0.441765    0.530000     0.005394
PD9677   PD        0.177059    0.412353    0.530000     0.005394
PD9678   PD        0.177059    0.441765    0.559412     0.005394
PD9679   PD        0.206471    0.412353    0.559412     0.005394
AU9680   AU        0.206471    0.441765    0.530000     0.007504
PD9681   PD        0.235882    0.412353    0.530000     0.005394
AU9682   AU        0.235882    0.441765    0.559412     0.007504
AU9683   AU        0.265294    0.412353    0.559412     0.007504
AU9684   AU        0.265294    0.441765    0.530000     0.007504
AU9685   AU        0.294706    0.412353    0.530000     0.007504
AU9686   AU        0.294706    0.441765    0.559412     0.007504
AU9687   AU        0.324118    0.412353    0.559412     0.007504
AU9688   AU        0.324118    0.441765    0.530000     0.007504
AU9689   AU        0.353529    0.412353    0.530000     0.007504
AU9690   AU        0.353529    0.441765    0.559412     0.007504
AU9691   AU        0.382941    0.412353    0.559412     0.007504
AU9692   AU        0.382941    0.441765    0.530000     0.007504
AU9693   AU        0.412353    0.412353    0.530000     0.007504
AU9694   AU        0.412353    0.441765    0.559412     0.007504
AU9695   AU        0.441765    0.412353    0.559412     0.007504
AU9696   AU        0.441765    0.441765    0.530000     0.007504
AU9697   AU        0.471176    0.412353    0.530000     0.007504
AU9698   AU        0.471176    0.441765    0.559412     0.007504
AU9699   AU        0.500588    0.412353    0.559412     0.007504
AU9700   AU        0.500588    0.441765    0.530000     0.007504
AU9701   AU        0.530000    0.412353    0.530000     0.007504
AU9702   AU        0.530000    0.441765    0.559412     0.007504
AU9703   AU        0.559412    0.412353    0.559412     0.007504
AU9704   AU        0.559412    0.441765    0.530000     0.007504
AU9705   AU        0.588824    0.412353    0.530000     0.007504
AU9706   AU        0.588824    0.441765    0.559412     0.007504
AU9707   AU        0.618235    0.412353    0.559412     0.007504
AU9708   AU        0.618235    0.441765    0.530000     0.007504
AU9709   AU        0.647647    0.412353    0.530000     0.007504
AU9710   AU        0.647647    0.441765    0.559412     0.007504
AU9711   AU        0.677059    0.412353    0.559412     0.007504
AU9712   AU        0.677059    0.441765    0.530000     0.007504
AU9713   AU        0.706471    0.412353    0.530000     0.007504
AU9714   AU        0.706471    0.441765    0.559412     0.007504
PD9715   PD        0.735882    0.412353    0.559412     0.005394
AU9716   AU        0.735882    0.441765    0.530000     0.007504
PD9717   PD        0.765294    0.412353    0.530000     0.005394
PD9718   PD        0.765294    0.441765    0.559412     0.005394
PD9719   PD        0.794706    0.412353    0.559412     0.005394
PD9720   PD        0.794706    0.441765    0.530000     0.005394
PD9737   PD        0.118235    0.471176    0.530000     0.005394
PD9739   PD        0.147647    0.471176    0.559412     0.005394
PD9740   PD        0.147647    0.500588    0.530000     0.005394
PD9741   PD        0.177059    0.471176    0.530000     0.005394
PD9742   PD        0.177059    0.500588    0.559412     0.005394
AU9743   AU        0.206471    0.471176    0.559412     0.007504
PD9744   PD        0.206471    0.500588    0.530000     0.005394
AU9745   AU        0.235882    0.471176    0.530000     0.007504
AU9746   AU        0.235882    0.500588    0.559412     0.007504
AU9747   AU        0.265294    0.471176    0.559412     0.007504
AU9748   AU        0.265294    0.500588    0.530000     0.007504
AU9749   AU        0.294706    0.471176    0.530000     0.007504
AU9750   AU        0.294706    0.500588    0.559412     0.007504
AU9751   AU        0.324118    0.471176    0.559412     0.007504
AU9752   AU        0.324118    0.500588    0.530000     0.007504
AU9753   AU        0.353529    0.471176    0.530000     0.007504
AU9754   AU        0.353529    0.500588    0.559412     0.007504
AU9755   AU        0.382941    0.471176    0.559412     0.007504
AU9756   AU        0.382941    0.500588    0.530000     0.007504
AU9757   AU        0.412353    0.471176    0.530000     0.007504
AU9758   AU        0.412353    0.500588    0.559412     0.007504
AU9759   AU        0.441765    0.471176    0.559412     0.007504
AU9760   AU        0.441765    0.500588    0.530000     0.007504
AU9761   AU        0.471176    0.471176    0.530000     0.007504
AU9762   AU        0.471176    0.500588    0.559412     0.007504
AU9763   AU        0.500588    0.471176    0.559412     0.007504
AU9764   AU        0.500588    0.500588    0.530000     0.007504
AU9765   AU        0.530000    0.471176    0.530000     0.007504
AU9766   AU        0.530000    0.500588    0.559412     0.007504
AU9767   AU        0.559412    0.471176    0.559412     0.007504
AU9768   AU        0.559412    0.500588    0.530000     0.007504
AU9769   AU        0.588824    0.471176    0.530000     0.007504
AU9770   AU        0.588824    0.500588    0.559412     0.007504
AU9771   AU        0.618235    0.471176    0.559412     0.007504
AU9772   AU        0.618235    0.500588    0.530000     0.007504
AU9773   AU        0.647647    0.471176    0.530000     0.007504
AU9774   AU        0.647647    0.500588    0.559412     0.007504
AU9775   AU        0.677059    0.471176    0.559412     0.007504
AU9776   AU        0.677059    0.500588    0.530000     0.007504
AU9777   AU        0.706471    0.471176    0.530000     0.007504
AU9778   AU        0.706471    0.500588    0.559412     0.007504
AU9779   AU        0.735882    0.471176    0.559412     0.007504
PD9780   PD        0.735882    0.500588    0.530000     0.005394
PD9781   PD        0.765294    0.471176    0.530000     0.005394
PD9782   PD        0.765294    0.500588    0.559412     0.005394
PD9783   PD        0.794706    0.471176    0.559412     0.005394
PD9784   PD        0.794706    0.500588    0.530000     0.005394
PD9785   PD        0.824118    0.471176    0.530000     0.005394
PD9803   PD        0.147647    0.530000    0.559412     0.005394
PD9804   PD        0.147647    0.559412    0.530000     0.005394
PD9805   PD        0.177059    0.530000    0.530000     0.005394
PD9806   PD        0.177059    0.559412    0.559412     0.005394
AU9807   AU        0.206471    0.530000    0.559412     0.007504
PD9808   PD        0.206471    0.559412    0.530000     0.005394
AU9809   AU        0.235882    0.530000    0.530000     0.007504
AU9810   AU        0.235882    0.559412    0.559412     0.007504
AU9811   AU        0.265294    0.530000    0.559412     0.007504
AU9812   AU        0.265294    0.559412    0.530000     0.007504
AU9813   AU        0.294706    0.530000    0.530000     0.007504
AU9814   AU        0.294706    0.559412    0.559412     0.007504
AU9815   AU        0.324118    0.530000    0.559412     0.007504
AU9816   AU        0.324118    0.559412    0.530000     0.007504
AU9817   AU        0.353529    0.530000    0.530000     0.007504
AU9818   AU        0.353529    0.559412    0.559412     0.007504
AU9819   AU        0.382941    0.530000    0.559412     0.007504
AU9820   AU        0.382941    0.559412    0.530000     0.007504
AU9821   AU        0.412353    0.530000    0.530000     0.007504
AU9822   AU        0.412353    0.559412    0.559412     0.007504
AU9823   AU        0.441765    0.530000    0.559412     0.007504
AU9824   AU        0.441765    0.559412    0.530000     0.007504
AU9825   AU        0.471176    0.530000    0.530000     0.007504
AU9826   AU        0.471176    0.559412    0.559412     0.007504
AU9827   AU        0.500588    0.530000    0.559412     0.007504
AU9828   AU        0.500588    0.559412    0.530000     0.007504
AU9829   AU        0.530000    0.530000    0.530000     0.007504
AU9830   AU        0.530000    0.559412    0.559412     0.007504
AU9831   AU        0.559412    0.530000    0.559412     0.007504
AU9832   AU        0.559412    0.559412    0.530000     0.007504
AU9833   AU        0.588824    0.530000    0.530000     0.007504
AU9834   AU        0.588824    0.559412    0.559412     0.007504
AU9835   AU        0.618235    0.530000    0.559412     0.007504
AU9836   AU        0.618235    0.559412    0.530000     0.007504
AU9837   AU        0.647647    0.530000    0.530000     0.007504
AU9838   AU        0.647647    0.559412    0.559412     0.007504
AU9839   AU        0.677059    0.530000    0.559412     0.007504
AU9840   AU        0.677059    0.559412    0.530000     0.007504
AU9841   AU        0.706471    0.530000    0.530000     0.007504
AU9842   AU        0.706471    0.559412    0.559412     0.007504
PD9843   PD        0.735882    0.530000    0.559412     0.005394
PD9844   PD        0.735882    0.559412    0.530000     0.005394
AU9845   AU        0.765294    0.530000    0.530000     0.007504
PD9846   PD        0.765294    0.559412    0.559412     0.005394
PD9847   PD        0.794706    0.530000    0.559412     0.005394
PD9848   PD        0.794706    0.559412    0.530000     0.005394
PD9867   PD        0.147647    0.588824    0.559412     0.005394
PD9868   PD        0.147647    0.618235    0.530000     0.005394
PD9869   PD        0.177059    0.588824    0.530000     0.005394
PD9870   PD        0.177059    0.618235    0.559412     0.005394
AU9871   AU        0.206471    0.588824    0.559412     0.007504
PD9872   PD        0.206471    0.618235    0.530000     0.005394
AU9873   AU        0.235882    0.588824    0.530000     0.007504
PD9874   PD        0.235882    0.618235    0.559412     0.005394
AU9875   AU        0.265294    0.588824    0.559412     0.007504
AU9876   AU        0.265294    0.618235    0.530000     0.007504
AU9877   AU        0.294706    0.588824    0.530000     0.007504
AU9878   AU        0.294706    0.618235    0.559412     0.007504
AU9879   AU        0.324118    0.588824    0.559412     0.007504
AU9880   AU        0.324118    0.618235    0.530000     0.007504
AU9881   AU        0.353529    0.588824    0.530000     0.007504
AU9882   AU        0.353529    0.618235    0.559412     0.007504
AU9883   AU        0.382941    0.588824    0.559412     0.007504
AU9884   AU        0.382941    0.618235    0.530000     0.007504
AU9885   AU        0.412353    0.588824    0.530000     0.007504
AU9886   AU        0.412353    0.618235    0.559412     0.007504
AU9887   AU        0.441765    0.588824    0.559412     0.007504
AU9888   AU        0.441765    0.618235    0.530000     0.007504
AU9889   AU        0.471176    0.588824    0.530000     0.007504
AU9890   AU        0.471176    0.618235    0.559412     0.007504
AU9891   AU        0.500588    0.588824    0.559412     0.007504
AU9892   AU        0.500588    0.618235    0.530000     0.007504
AU9893   AU        0.530000    0.588824    0.530000     0.007504
AU9894   AU        0.530000    0.618235    0.559412     0.007504
AU9895   AU        0.559412    0.588824    0.559412     0.007504
AU9896   AU        0.559412    0.618235    0.530000     0.007504
AU9897   AU        0.588824    0.588824    0.530000     0.007504
AU9898   AU        0.588824    0.618235    0.559412     0.007504
AU9899   AU        0.618235    0.588824    0.559412     0.007504
AU9900   AU        0.618235    0.618235    0.530000     0.007504
AU9901   AU        0.647647    0.588824    0.530000     0.007504
AU9902   AU        0.647647    0.618235    0.559412     0.007504
AU9903   AU        0.677059    0.588824    0.559412     0.007504
AU9904   AU        0.677059    0.618235    0.530000     0.007504
AU9905   AU        0.706471    0.588824    0.530000     0.007504
PD9906   PD        0.706471    0.618235    0.559412     0.005394
PD9907   PD        0.735882    0.588824    0.559412     0.005394
PD9908   PD        0.735882    0.618235    0.530000     0.005394
PD9909   PD        0.765294    0.588824    0.530000     0.005394
PD9910   PD        0.765294    0.618235    0.559412     0.005394
PD9911   PD        0.794706    0.588824    0.559412     0.005394
PD9912   PD        0.794706    0.618235    0.530000     0.005394
PD9933   PD        0.177059    0.647647    0.530000     0.005394
PD9935   PD        0.206471    0.647647    0.559412     0.005394
PD9936   PD        0.206471    0.677059    0.530000     0.005394
PD9937   PD        0.235882    0.647647    0.530000     0.005394
PD9938   PD        0.235882    0.677059    0.559412     0.005394
AU9939   AU        0.265294    0.647647    0.559412     0.007504
AU9940   AU        0.265294    0.677059    0.530000     0.007504
AU9941   AU        0.294706    0.647647    0.530000     0.007504
PD9942   PD        0.294706    0.677059    0.559412     0.005394
AU9943   AU        0.324118    0.647647    0.559412     0.007504
AU9944   AU        0.324118    0.677059    0.530000     0.007504
AU9945   AU        0.353529    0.647647    0.530000     0.007504
AU9946   AU        0.353529    0.677059    0.559412     0.007504
AU9947   AU        0.382941    0.647647    0.559412     0.007504
AU9948   AU        0.382941    0.677059    0.530000     0.007504
AU9949   AU        0.412353    0.647647    0.530000     0.007504
AU9950   AU        0.412353    0.677059    0.559412     0.007504
AU9951   AU        0.441765    0.647647    0.559412     0.007504
AU9952   AU        0.441765    0.677059    0.530000     0.007504
AU9953   AU        0.471176    0.647647    0.530000     0.007504
AU9954   AU        0.471176    0.677059    0.559412     0.007504
AU9955   AU        0.500588    0.647647    0.559412     0.007504
AU9956   AU        0.500588    0.677059    0.530000     0.007504
AU9957   AU        0.530000    0.647647    0.530000     0.007504
AU9958   AU        0.530000    0.677059    0.559412     0.007504
AU9959   AU        0.559412    0.647647    0.559412     0.007504
AU9960   AU        0.559412    0.677059    0.530000     0.007504
AU9961   AU        0.588824    0.647647    0.530000     0.007504
AU9962   AU        0.588824    0.677059    0.559412     0.007504
AU9963   AU        0.618235    0.647647    0.559412     0.007504
AU9964   AU        0.618235    0.677059    0.530000     0.007504
AU9965   AU        0.647647    0.647647    0.530000     0.007504
PD9966   PD        0.647647    0.677059    0.559412     0.005394
PD9967   PD        0.677059    0.647647    0.559412     0.005394
AU9968   AU        0.677059    0.677059    0.530000     0.007504
PD9969   PD        0.706471    0.647647    0.530000     0.005394
PD9970   PD        0.706471    0.677059    0.559412     0.005394
PD9971   PD        0.735882    0.647647    0.559412     0.005394
PD9972   PD        0.735882    0.677059    0.530000     0.005394
PD9973   PD        0.765294    0.647647    0.530000     0.005394
PD10001   PD        0.235882    0.706471    0.530000     0.005394
PD10003   PD        0.265294    0.706471    0.559412     0.005394
PD10004   PD        0.265294    0.735882    0.530000     0.005394
PD10005   PD        0.294706    0.706471    0.530000     0.005394
PD10006   PD        0.294706    0.735882    0.559412     0.005394
PD10007   PD        0.324118    0.706471    0.559412     0.005394
PD10008   PD        0.324118    0.735882    0.530000     0.005394
AU10009   AU        0.353529    0.706471    0.530000     0.007504
PD10010   PD        0.353529    0.735882    0.559412     0.005394
AU10011   AU        0.382941    0.706471    0.559412     0.007504
AU10012   AU        0.382941    0.735882    0.530000     0.007504
AU10013   AU        0.412353    0.706471    0.530000     0.007504
PD10014   PD        0.412353    0.735882    0.559412     0.005394
AU10015   AU        0.441765    0.706471    0.559412     0.007504
PD10016   PD        0.441765    0.735882    0.530000     0.005394
AU10017   AU        0.471176    0.706471    0.530000     0.007504
AU10018   AU        0.471176    0.735882    0.559412     0.007504
AU10019   AU        0.500588    0.706471    0.559412     0.007504
AU10020   AU        0.500588    0.735882    0.530000     0.007504
AU10021   AU        0.530000    0.706471    0.530000     0.007504
PD10022   PD        0.530000    0.735882    0.559412     0.005394
AU10023   AU        0.559412    0.706471    0.559412     0.007504
PD10024   PD        0.559412    0.735882    0.530000     0.005394
AU10025   AU        0.588824    0.706471    0.530000     0.007504
PD10026   PD        0.588824    0.735882    0.559412     0.005394
AU10027   AU        0.618235    0.706471    0.559412     0.007504
PD10028   PD        0.618235    0.735882    0.530000     0.005394
PD10029   PD        0.647647    0.706471    0.530000     0.005394
PD10030   PD        0.647647    0.735882    0.559412     0.005394
PD10031   PD        0.677059    0.706471    0.559412     0.005394
PD10032   PD        0.677059    0.735882    0.530000     0.005394
PD10033   PD        0.706471    0.706471    0.530000     0.005394
PD10069   PD        0.294706    0.765294    0.530000     0.005394
PD10071   PD        0.324118    0.765294    0.559412     0.005394
PD10072   PD        0.324118    0.794706    0.530000     0.005394
PD10073   PD        0.353529    0.765294    0.530000     0.005394
PD10074   PD        0.353529    0.794706    0.559412     0.005394
PD10075   PD        0.382941    0.765294    0.559412     0.005394
PD10076   PD        0.382941    0.794706    0.530000     0.005394
PD10077   PD        0.412353    0.765294    0.530000     0.005394
PD10078   PD        0.412353    0.794706    0.559412     0.005394
PD10079   PD        0.441765    0.765294    0.559412     0.005394
PD10080   PD        0.441765    0.794706    0.530000     0.005394
AU10081   AU        0.471176    0.765294    0.530000     0.007504
PD10082   PD        0.471176    0.794706    0.559412     0.005394
AU10083   AU        0.500588    0.765294    0.559412     0.007504
PD10084   PD        0.500588    0.794706    0.530000     0.005394
PD10085   PD        0.530000    0.765294    0.530000     0.005394
PD10086   PD        0.530000    0.794706    0.559412     0.005394
PD10087   PD        0.559412    0.765294    0.559412     0.005394
PD10088   PD        0.559412    0.794706    0.530000     0.005394
PD10089   PD        0.588824    0.765294    0.530000     0.005394
PD10090   PD        0.588824    0.794706    0.559412     0.005394
PD10091   PD        0.618235    0.765294    0.559412     0.005394
PD10092   PD        0.618235    0.794706    0.530000     0.005394
PD10093   PD        0.647647    0.765294    0.530000     0.005394
PD10145   PD        0.471176    0.824118    0.530000     0.005394
PD10396   PD        0.382941    0.147647    0.588824     0.005394
PD10398   PD        0.412353    0.147647    0.618235     0.005394
PD10400   PD        0.441765    0.147647    0.588824     0.005394
PD10402   PD        0.471176    0.147647    0.618235     0.005394
PD10404   PD        0.500588    0.147647    0.588824     0.005394
PD10406   PD        0.530000    0.147647    0.618235     0.005394
PD10408   PD        0.559412    0.147647    0.588824     0.005394
PD10452   PD        0.265294    0.206471    0.588824     0.005394
PD10454   PD        0.294706    0.206471    0.618235     0.005394
PD10455   PD        0.324118    0.177059    0.618235     0.005394
PD10456   PD        0.324118    0.206471    0.588824     0.005394
PD10457   PD        0.353529    0.177059    0.588824     0.005394
PD10458   PD        0.353529    0.206471    0.618235     0.005394
PD10459   PD        0.382941    0.177059    0.618235     0.005394
PD10460   PD        0.382941    0.206471    0.588824     0.005394
PD10461   PD        0.412353    0.177059    0.588824     0.005394
PD10462   PD        0.412353    0.206471    0.618235     0.005394
PD10463   PD        0.441765    0.177059    0.618235     0.005394
PD10464   PD        0.441765    0.206471    0.588824     0.005394
PD10465   PD        0.471176    0.177059    0.588824     0.005394
PD10466   PD        0.471176    0.206471    0.618235     0.005394
PD10467   PD        0.500588    0.177059    0.618235     0.005394
PD10468   PD        0.500588    0.206471    0.588824     0.005394
PD10469   PD        0.530000    0.177059    0.588824     0.005394
AU10470   AU        0.530000    0.206471    0.618235     0.007504
PD10471   PD        0.559412    0.177059    0.618235     0.005394
PD10472   PD        0.559412    0.206471    0.588824     0.005394
PD10473   PD        0.588824    0.177059    0.588824     0.005394
PD10474   PD        0.588824    0.206471    0.618235     0.005394
PD10475   PD        0.618235    0.177059    0.618235     0.005394
PD10476   PD        0.618235    0.206471    0.588824     0.005394
PD10478   PD        0.647647    0.206471    0.618235     0.005394
PD10480   PD        0.677059    0.206471    0.588824     0.005394
PD10512   PD        0.206471    0.265294    0.588824     0.005394
PD10513   PD        0.235882    0.235882    0.588824     0.005394
PD10514   PD        0.235882    0.265294    0.618235     0.005394
PD10515   PD        0.265294    0.235882    0.618235     0.005394
PD10516   PD        0.265294    0.265294    0.588824     0.005394
PD10517   PD        0.294706    0.235882    0.588824     0.005394
PD10518   PD        0.294706    0.265294    0.618235     0.005394
PD10519   PD        0.324118    0.235882    0.618235     0.005394
AU10520   AU        0.324118    0.265294    0.588824     0.007504
PD10521   PD        0.353529    0.235882    0.588824     0.005394
AU10522   AU        0.353529    0.265294    0.618235     0.007504
AU10523   AU        0.382941    0.235882    0.618235     0.007504
AU10524   AU        0.382941    0.265294    0.588824     0.007504
AU10525   AU        0.412353    0.235882    0.588824     0.007504
AU10526   AU        0.412353    0.265294    0.618235     0.007504
AU10527   AU        0.441765    0.235882    0.618235     0.007504
AU10528   AU        0.441765    0.265294    0.588824     0.007504
AU10529   AU        0.471176    0.235882    0.588824     0.007504
AU10530   AU        0.471176    0.265294    0.618235     0.007504
AU10531   AU        0.500588    0.235882    0.618235     0.007504
AU10532   AU        0.500588    0.265294    0.588824     0.007504
AU10533   AU        0.530000    0.235882    0.588824     0.007504
PD10534   PD        0.530000    0.265294    0.618235     0.005394
PD10535   PD        0.559412    0.235882    0.618235     0.005394
AU10536   AU        0.559412    0.265294    0.588824     0.007504
PD10537   PD        0.588824    0.235882    0.588824     0.005394
PD10538   PD        0.588824    0.265294    0.618235     0.005394
PD10539   PD        0.618235    0.235882    0.618235     0.005394
PD10540   PD        0.618235    0.265294    0.588824     0.005394
PD10541   PD        0.647647    0.235882    0.588824     0.005394
PD10542   PD        0.647647    0.265294    0.618235     0.005394
PD10543   PD        0.677059    0.235882    0.618235     0.005394
PD10544   PD        0.677059    0.265294    0.588824     0.005394
PD10545   PD        0.706471    0.235882    0.588824     0.005394
PD10546   PD        0.706471    0.265294    0.618235     0.005394
PD10548   PD        0.735882    0.265294    0.588824     0.005394
PD10574   PD        0.177059    0.324118    0.618235     0.005394
PD10575   PD        0.206471    0.294706    0.618235     0.005394
PD10576   PD        0.206471    0.324118    0.588824     0.005394
PD10577   PD        0.235882    0.294706    0.588824     0.005394
PD10578   PD        0.235882    0.324118    0.618235     0.005394
PD10579   PD        0.265294    0.294706    0.618235     0.005394
PD10580   PD        0.265294    0.324118    0.588824     0.005394
AU10581   AU        0.294706    0.294706    0.588824     0.007504
PD10582   PD        0.294706    0.324118    0.618235     0.005394
AU10583   AU        0.324118    0.294706    0.618235     0.007504
AU10584   AU        0.324118    0.324118    0.588824     0.007504
AU10585   AU        0.353529    0.294706    0.588824     0.007504
AU10586   AU        0.353529    0.324118    0.618235     0.007504
AU10587   AU        0.382941    0.294706    0.618235     0.007504
AU10588   AU        0.382941    0.324118    0.588824     0.007504
AU10589   AU        0.412353    0.294706    0.588824     0.007504
AU10590   AU        0.412353    0.324118    0.618235     0.007504
AU10591   AU        0.441765    0.294706    0.618235     0.007504
AU10592   AU        0.441765    0.324118    0.588824     0.007504
AU10593   AU        0.471176    0.294706    0.588824     0.007504
AU10594   AU        0.471176    0.324118    0.618235     0.007504
AU10595   AU        0.500588    0.294706    0.618235     0.007504
AU10596   AU        0.500588    0.324118    0.588824     0.007504
AU10597   AU        0.530000    0.294706    0.588824     0.007504
AU10598   AU        0.530000    0.324118    0.618235     0.007504
AU10599   AU        0.559412    0.294706    0.618235     0.007504
AU10600   AU        0.559412    0.324118    0.588824     0.007504
AU10601   AU        0.588824    0.294706    0.588824     0.007504
AU10602   AU        0.588824    0.324118    0.618235     0.007504
AU10603   AU        0.618235    0.294706    0.618235     0.007504
AU10604   AU        0.618235    0.324118    0.588824     0.007504
PD10605   PD        0.647647    0.294706    0.588824     0.005394
AU10606   AU        0.647647    0.324118    0.618235     0.007504
PD10607   PD        0.677059    0.294706    0.618235     0.005394
AU10608   AU        0.677059    0.324118    0.588824     0.007504
PD10609   PD        0.706471    0.294706    0.588824     0.005394
PD10610   PD        0.706471    0.324118    0.618235     0.005394
PD10611   PD        0.735882    0.294706    0.618235     0.005394
PD10612   PD        0.735882    0.324118    0.588824     0.005394
PD10614   PD        0.765294    0.324118    0.618235     0.005394
PD10636   PD        0.147647    0.382941    0.588824     0.005394
PD10637   PD        0.177059    0.353529    0.588824     0.005394
PD10638   PD        0.177059    0.382941    0.618235     0.005394
PD10639   PD        0.206471    0.353529    0.618235     0.005394
PD10640   PD        0.206471    0.382941    0.588824     0.005394
PD10641   PD        0.235882    0.353529    0.588824     0.005394
PD10642   PD        0.235882    0.382941    0.618235     0.005394
AU10643   AU        0.265294    0.353529    0.618235     0.007504
AU10644   AU        0.265294    0.382941    0.588824     0.007504
AU10645   AU        0.294706    0.353529    0.588824     0.007504
AU10646   AU        0.294706    0.382941    0.618235     0.007504
AU10647   AU        0.324118    0.353529    0.618235     0.007504
AU10648   AU        0.324118    0.382941    0.588824     0.007504
AU10649   AU        0.353529    0.353529    0.588824     0.007504
AU10650   AU        0.353529    0.382941    0.618235     0.007504
AU10651   AU        0.382941    0.353529    0.618235     0.007504
AU10652   AU        0.382941    0.382941    0.588824     0.007504
AU10653   AU        0.412353    0.353529    0.588824     0.007504
AU10654   AU        0.412353    0.382941    0.618235     0.007504
AU10655   AU        0.441765    0.353529    0.618235     0.007504
AU10656   AU        0.441765    0.382941    0.588824     0.007504
AU10657   AU        0.471176    0.353529    0.588824     0.007504
AU10658   AU        0.471176    0.382941    0.618235     0.007504
AU10659   AU        0.500588    0.353529    0.618235     0.007504
AU10660   AU        0.500588    0.382941    0.588824     0.007504
AU10661   AU        0.530000    0.353529    0.588824     0.007504
AU10662   AU        0.530000    0.382941    0.618235     0.007504
AU10663   AU        0.559412    0.353529    0.618235     0.007504
AU10664   AU        0.559412    0.382941    0.588824     0.007504
AU10665   AU        0.588824    0.353529    0.588824     0.007504
AU10666   AU        0.588824    0.382941    0.618235     0.007504
AU10667   AU        0.618235    0.353529    0.618235     0.007504
AU10668   AU        0.618235    0.382941    0.588824     0.007504
AU10669   AU        0.647647    0.353529    0.588824     0.007504
AU10670   AU        0.647647    0.382941    0.618235     0.007504
PD10671   PD        0.677059    0.353529    0.618235     0.005394
AU10672   AU        0.677059    0.382941    0.588824     0.007504
PD10673   PD        0.706471    0.353529    0.588824     0.005394
PD10674   PD        0.706471    0.382941    0.618235     0.005394
PD10675   PD        0.735882    0.353529    0.618235     0.005394
PD10676   PD        0.735882    0.382941    0.588824     0.005394
PD10677   PD        0.765294    0.353529    0.588824     0.005394
PD10678   PD        0.765294    0.382941    0.618235     0.005394
PD10680   PD        0.794706    0.382941    0.588824     0.005394
PD10699   PD        0.147647    0.412353    0.618235     0.005394
PD10700   PD        0.147647    0.441765    0.588824     0.005394
PD10701   PD        0.177059    0.412353    0.588824     0.005394
PD10702   PD        0.177059    0.441765    0.618235     0.005394
PD10703   PD        0.206471    0.412353    0.618235     0.005394
AU10704   AU        0.206471    0.441765    0.588824     0.007504
AU10705   AU        0.235882    0.412353    0.588824     0.007504
AU10706   AU        0.235882    0.441765    0.618235     0.007504
AU10707   AU        0.265294    0.412353    0.618235     0.007504
AU10708   AU        0.265294    0.441765    0.588824     0.007504
AU10709   AU        0.294706    0.412353    0.588824     0.007504
AU10710   AU        0.294706    0.441765    0.618235     0.007504
AU10711   AU        0.324118    0.412353    0.618235     0.007504
AU10712   AU        0.324118    0.441765    0.588824     0.007504
AU10713   AU        0.353529    0.412353    0.588824     0.007504
AU10714   AU        0.353529    0.441765    0.618235     0.007504
AU10715   AU        0.382941    0.412353    0.618235     0.007504
AU10716   AU        0.382941    0.441765    0.588824     0.007504
AU10717   AU        0.412353    0.412353    0.588824     0.007504
AU10718   AU        0.412353    0.441765    0.618235     0.007504
AU10719   AU        0.441765    0.412353    0.618235     0.007504
AU10720   AU        0.441765    0.441765    0.588824     0.007504
AU10721   AU        0.471176    0.412353    0.588824     0.007504
AU10722   AU        0.471176    0.441765    0.618235     0.007504
AU10723   AU        0.500588    0.412353    0.618235     0.007504
AU10724   AU        0.500588    0.441765    0.588824     0.007504
AU10725   AU        0.530000    0.412353    0.588824     0.007504
AU10726   AU        0.530000    0.441765    0.618235     0.007504
AU10727   AU        0.559412    0.412353    0.618235     0.007504
AU10728   AU        0.559412    0.441765    0.588824     0.007504
AU10729   AU        0.588824    0.412353    0.588824     0.007504
AU10730   AU        0.588824    0.441765    0.618235     0.007504
AU10731   AU        0.618235    0.412353    0.618235     0.007504
AU10732   AU        0.618235    0.441765    0.588824     0.007504
AU10733   AU        0.647647    0.412353    0.588824     0.007504
AU10734   AU        0.647647    0.441765    0.618235     0.007504
AU10735   AU        0.677059    0.412353    0.618235     0.007504
AU10736   AU        0.677059    0.441765    0.588824     0.007504
AU10737   AU        0.706471    0.412353    0.588824     0.007504
PD10738   PD        0.706471    0.441765    0.618235     0.005394
PD10739   PD        0.735882    0.412353    0.618235     0.005394
PD10740   PD        0.735882    0.441765    0.588824     0.005394
PD10741   PD        0.765294    0.412353    0.588824     0.005394
PD10742   PD        0.765294    0.441765    0.618235     0.005394
PD10743   PD        0.794706    0.412353    0.618235     0.005394
PD10744   PD        0.794706    0.441765    0.588824     0.005394
PD10763   PD        0.147647    0.471176    0.618235     0.005394
PD10764   PD        0.147647    0.500588    0.588824     0.005394
PD10765   PD        0.177059    0.471176    0.588824     0.005394
PD10766   PD        0.177059    0.500588    0.618235     0.005394
PD10767   PD        0.206471    0.471176    0.618235     0.005394
PD10768   PD        0.206471    0.500588    0.588824     0.005394
AU10769   AU        0.235882    0.471176    0.588824     0.007504
AU10770   AU        0.235882    0.500588    0.618235     0.007504
AU10771   AU        0.265294    0.471176    0.618235     0.007504
AU10772   AU        0.265294    0.500588    0.588824     0.007504
AU10773   AU        0.294706    0.471176    0.588824     0.007504
AU10774   AU        0.294706    0.500588    0.618235     0.007504
AU10775   AU        0.324118    0.471176    0.618235     0.007504
AU10776   AU        0.324118    0.500588    0.588824     0.007504
AU10777   AU        0.353529    0.471176    0.588824     0.007504
AU10778   AU        0.353529    0.500588    0.618235     0.007504
AU10779   AU        0.382941    0.471176    0.618235     0.007504
AU10780   AU        0.382941    0.500588    0.588824     0.007504
AU10781   AU        0.412353    0.471176    0.588824     0.007504
AU10782   AU        0.412353    0.500588    0.618235     0.007504
AU10783   AU        0.441765    0.471176    0.618235     0.007504
AU10784   AU        0.441765    0.500588    0.588824     0.007504
AU10785   AU        0.471176    0.471176    0.588824     0.007504
AU10786   AU        0.471176    0.500588    0.618235     0.007504
AU10787   AU        0.500588    0.471176    0.618235     0.007504
AU10788   AU        0.500588    0.500588    0.588824     0.007504
AU10789   AU        0.530000    0.471176    0.588824     0.007504
AU10790   AU        0.530000    0.500588    0.618235     0.007504
AU10791   AU        0.559412    0.471176    0.618235     0.007504
AU10792   AU        0.559412    0.500588    0.588824     0.007504
AU10793   AU        0.588824    0.471176    0.588824     0.007504
AU10794   AU        0.588824    0.500588    0.618235     0.007504
AU10795   AU        0.618235    0.471176    0.618235     0.007504
AU10796   AU        0.618235    0.500588    0.588824     0.007504
AU10797   AU        0.647647    0.471176    0.588824     0.007504
AU10798   AU        0.647647    0.500588    0.618235     0.007504
AU10799   AU        0.677059    0.471176    0.618235     0.007504
AU10800   AU        0.677059    0.500588    0.588824     0.007504
AU10801   AU        0.706471    0.471176    0.588824     0.007504
AU10802   AU        0.706471    0.500588    0.618235     0.007504
PD10803   PD        0.735882    0.471176    0.618235     0.005394
PD10804   PD        0.735882    0.500588    0.588824     0.005394
PD10805   PD        0.765294    0.471176    0.588824     0.005394
PD10806   PD        0.765294    0.500588    0.618235     0.005394
PD10807   PD        0.794706    0.471176    0.618235     0.005394
PD10808   PD        0.794706    0.500588    0.588824     0.005394
PD10827   PD        0.147647    0.530000    0.618235     0.005394
PD10828   PD        0.147647    0.559412    0.588824     0.005394
AU10829   AU        0.177059    0.530000    0.588824     0.007504
PD10830   PD        0.177059    0.559412    0.618235     0.005394
AU10831   AU        0.206471    0.530000    0.618235     0.007504
PD10832   PD        0.206471    0.559412    0.588824     0.005394
AU10833   AU        0.235882    0.530000    0.588824     0.007504
PD10834   PD        0.235882    0.559412    0.618235     0.005394
AU10835   AU        0.265294    0.530000    0.618235     0.007504
AU10836   AU        0.265294    0.559412    0.588824     0.007504
AU10837   AU        0.294706    0.530000    0.588824     0.007504
AU10838   AU        0.294706    0.559412    0.618235     0.007504
AU10839   AU        0.324118    0.530000    0.618235     0.007504
AU10840   AU        0.324118    0.559412    0.588824     0.007504
AU10841   AU        0.353529    0.530000    0.588824     0.007504
AU10842   AU        0.353529    0.559412    0.618235     0.007504
AU10843   AU        0.382941    0.530000    0.618235     0.007504
AU10844   AU        0.382941    0.559412    0.588824     0.007504
AU10845   AU        0.412353    0.530000    0.588824     0.007504
AU10846   AU        0.412353    0.559412    0.618235     0.007504
AU10847   AU        0.441765    0.530000    0.618235     0.007504
AU10848   AU        0.441765    0.559412    0.588824     0.007504
AU10849   AU        0.471176    0.530000    0.588824     0.007504
AU10850   AU        0.471176    0.559412    0.618235     0.007504
AU10851   AU        0.500588    0.530000    0.618235     0.007504
AU10852   AU        0.500588    0.559412    0.588824     0.007504
AU10853   AU        0.530000    0.530000    0.588824     0.007504
AU10854   AU        0.530000    0.559412    0.618235     0.007504
AU10855   AU        0.559412    0.530000    0.618235     0.007504
AU10856   AU        0.559412    0.559412    0.588824     0.007504
AU10857   AU        0.588824    0.530000    0.588824     0.007504
AU10858   AU        0.588824    0.559412    0.618235     0.007504
AU10859   AU        0.618235    0.530000    0.618235     0.007504
AU10860   AU        0.618235    0.559412    0.588824     0.007504
AU10861   AU        0.647647    0.530000    0.588824     0.007504
AU10862   AU        0.647647    0.559412    0.618235     0.007504
AU10863   AU        0.677059    0.530000    0.618235     0.007504
AU10864   AU        0.677059    0.559412    0.588824     0.007504
AU10865   AU        0.706471    0.530000    0.588824     0.007504
PD10866   PD        0.706471    0.559412    0.618235     0.005394
PD10867   PD        0.735882    0.530000    0.618235     0.005394
PD10868   PD        0.735882    0.559412    0.588824     0.005394
PD10869   PD        0.765294    0.530000    0.588824     0.005394
PD10870   PD        0.765294    0.559412    0.618235     0.005394
PD10871   PD        0.794706    0.530000    0.618235     0.005394
PD10872   PD        0.794706    0.559412    0.588824     0.005394
PD10893   PD        0.177059    0.588824    0.588824     0.005394
PD10894   PD        0.177059    0.618235    0.618235     0.005394
PD10895   PD        0.206471    0.588824    0.618235     0.005394
PD10896   PD        0.206471    0.618235    0.588824     0.005394
PD10897   PD        0.235882    0.588824    0.588824     0.005394
PD10898   PD        0.235882    0.618235    0.618235     0.005394
PD10899   PD        0.265294    0.588824    0.618235     0.005394
AU10900   AU        0.265294    0.618235    0.588824     0.007504
AU10901   AU        0.294706    0.588824    0.588824     0.007504
AU10902   AU        0.294706    0.618235    0.618235     0.007504
AU10903   AU        0.324118    0.588824    0.618235     0.007504
AU10904   AU        0.324118    0.618235    0.588824     0.007504
AU10905   AU        0.353529    0.588824    0.588824     0.007504
AU10906   AU        0.353529    0.618235    0.618235     0.007504
AU10907   AU        0.382941    0.588824    0.618235     0.007504
AU10908   AU        0.382941    0.618235    0.588824     0.007504
AU10909   AU        0.412353    0.588824    0.588824     0.007504
AU10910   AU        0.412353    0.618235    0.618235     0.007504
AU10911   AU        0.441765    0.588824    0.618235     0.007504
AU10912   AU        0.441765    0.618235    0.588824     0.007504
AU10913   AU        0.471176    0.588824    0.588824     0.007504
AU10914   AU        0.471176    0.618235    0.618235     0.007504
AU10915   AU        0.500588    0.588824    0.618235     0.007504
AU10916   AU        0.500588    0.618235    0.588824     0.007504
AU10917   AU        0.530000    0.588824    0.588824     0.007504
AU10918   AU        0.530000    0.618235    0.618235     0.007504
AU10919   AU        0.559412    0.588824    0.618235     0.007504
AU10920   AU        0.559412    0.618235    0.588824     0.007504
AU10921   AU        0.588824    0.588824    0.588824     0.007504
AU10922   AU        0.588824    0.618235    0.618235     0.007504
AU10923   AU        0.618235    0.588824    0.618235     0.007504
AU10924   AU        0.618235    0.618235    0.588824     0.007504
AU10925   AU        0.647647    0.588824    0.588824     0.007504
AU10926   AU        0.647647    0.618235    0.618235     0.007504
PD10927   PD        0.677059    0.588824    0.618235     0.005394
PD10928   PD        0.677059    0.618235    0.588824     0.005394
PD10929   PD        0.706471    0.588824    0.588824     0.005394
PD10930   PD        0.706471    0.618235    0.618235     0.005394
PD10931   PD        0.735882    0.588824    0.618235     0.005394
PD10932   PD        0.735882    0.618235    0.588824     0.005394
PD10933   PD        0.765294    0.588824    0.588824     0.005394
PD10934   PD        0.765294    0.618235    0.618235     0.005394
PD10959   PD        0.206471    0.647647    0.618235     0.005394
PD10960   PD        0.206471    0.677059    0.588824     0.005394
PD10961   PD        0.235882    0.647647    0.588824     0.005394
PD10962   PD        0.235882    0.677059    0.618235     0.005394
PD10963   PD        0.265294    0.647647    0.618235     0.005394
PD10964   PD        0.265294    0.677059    0.588824     0.005394
PD10965   PD        0.294706    0.647647    0.588824     0.005394
PD10966   PD        0.294706    0.677059    0.618235     0.005394
AU10967   AU        0.324118    0.647647    0.618235     0.007504
PD10968   PD        0.324118    0.677059    0.588824     0.005394
AU10969   AU        0.353529    0.647647    0.588824     0.007504
AU10970   AU        0.353529    0.677059    0.618235     0.007504
AU10971   AU        0.382941    0.647647    0.618235     0.007504
AU10972   AU        0.382941    0.677059    0.588824     0.007504
AU10973   AU        0.412353    0.647647    0.588824     0.007504
AU10974   AU        0.412353    0.677059    0.618235     0.007504
AU10975   AU        0.441765    0.647647    0.618235     0.007504
AU10976   AU        0.441765    0.677059    0.588824     0.007504
AU10977   AU        0.471176    0.647647    0.588824     0.007504
AU10978   AU        0.471176    0.677059    0.618235     0.007504
AU10979   AU        0.500588    0.647647    0.618235     0.007504
AU10980   AU        0.500588    0.677059    0.588824     0.007504
AU10981   AU        0.530000    0.647647    0.588824     0.007504
AU10982   AU        0.530000    0.677059    0.618235     0.007504
AU10983   AU        0.559412    0.647647    0.618235     0.007504
AU10984   AU        0.559412    0.677059    0.588824     0.007504
AU10985   AU        0.588824    0.647647    0.588824     0.007504
PD10986   PD        0.588824    0.677059    0.618235     0.005394
AU10987   AU        0.618235    0.647647    0.618235     0.007504
AU10988   AU        0.618235    0.677059    0.588824     0.007504
AU10989   AU        0.647647    0.647647    0.588824     0.007504
PD10990   PD        0.647647    0.677059    0.618235     0.005394
PD10991   PD        0.677059    0.647647    0.618235     0.005394
PD10992   PD        0.677059    0.677059    0.588824     0.005394
PD10993   PD        0.706471    0.647647    0.588824     0.005394
PD10994   PD        0.706471    0.677059    0.618235     0.005394
PD10995   PD        0.735882    0.647647    0.618235     0.005394
PD10996   PD        0.735882    0.677059    0.588824     0.005394
PD11025   PD        0.235882    0.706471    0.588824     0.005394
PD11027   PD        0.265294    0.706471    0.618235     0.005394
PD11028   PD        0.265294    0.735882    0.588824     0.005394
PD11029   PD        0.294706    0.706471    0.588824     0.005394
PD11030   PD        0.294706    0.735882    0.618235     0.005394
PD11031   PD        0.324118    0.706471    0.618235     0.005394
PD11032   PD        0.324118    0.735882    0.588824     0.005394
PD11033   PD        0.353529    0.706471    0.588824     0.005394
PD11034   PD        0.353529    0.735882    0.618235     0.005394
AU11035   AU        0.382941    0.706471    0.618235     0.007504
PD11036   PD        0.382941    0.735882    0.588824     0.005394
PD11037   PD        0.412353    0.706471    0.588824     0.005394
PD11038   PD        0.412353    0.735882    0.618235     0.005394
PD11039   PD        0.441765    0.706471    0.618235     0.005394
PD11040   PD        0.441765    0.735882    0.588824     0.005394
AU11041   AU        0.471176    0.706471    0.588824     0.007504
PD11042   PD        0.471176    0.735882    0.618235     0.005394
PD11043   PD        0.500588    0.706471    0.618235     0.005394
PD11044   PD        0.500588    0.735882    0.588824     0.005394
PD11045   PD        0.530000    0.706471    0.588824     0.005394
PD11046   PD        0.530000    0.735882    0.618235     0.005394
PD11047   PD        0.559412    0.706471    0.618235     0.005394
PD11048   PD        0.559412    0.735882    0.588824     0.005394
PD11049   PD        0.588824    0.706471    0.588824     0.005394
PD11050   PD        0.588824    0.735882    0.618235     0.005394
PD11051   PD        0.618235    0.706471    0.618235     0.005394
PD11052   PD        0.618235    0.735882    0.588824     0.005394
PD11053   PD        0.647647    0.706471    0.588824     0.005394
PD11054   PD        0.647647    0.735882    0.618235     0.005394
PD11055   PD        0.677059    0.706471    0.618235     0.005394
PD11056   PD        0.677059    0.735882    0.588824     0.005394
PD11057   PD        0.706471    0.706471    0.588824     0.005394
PD11095   PD        0.324118    0.765294    0.618235     0.005394
PD11097   PD        0.353529    0.765294    0.588824     0.005394
PD11099   PD        0.382941    0.765294    0.618235     0.005394
PD11100   PD        0.382941    0.794706    0.588824     0.005394
PD11101   PD        0.412353    0.765294    0.588824     0.005394
PD11102   PD        0.412353    0.794706    0.618235     0.005394
PD11103   PD        0.441765    0.765294    0.618235     0.005394
PD11104   PD        0.441765    0.794706    0.588824     0.005394
PD11105   PD        0.471176    0.765294    0.588824     0.005394
PD11106   PD        0.471176    0.794706    0.618235     0.005394
PD11107   PD        0.500588    0.765294    0.618235     0.005394
PD11108   PD        0.500588    0.794706    0.588824     0.005394
PD11109   PD        0.530000    0.765294    0.588824     0.005394
PD11110   PD        0.530000    0.794706    0.618235     0.005394
PD11111   PD        0.559412    0.765294    0.618235     0.005394
PD11112   PD        0.559412    0.794706    0.588824     0.005394
PD11113   PD        0.588824    0.765294    0.588824     0.005394
PD11115   PD        0.618235    0.765294    0.618235     0.005394
PD11480   PD        0.324118    0.206471    0.647647     0.005394
PD11482   PD        0.353529    0.206471    0.677059     0.005394
PD11484   PD        0.382941    0.206471    0.647647     0.005394
PD11485   PD        0.412353    0.177059    0.647647     0.005394
PD11486   PD        0.412353    0.206471    0.677059     0.005394
PD11487   PD        0.441765    0.177059    0.677059     0.005394
PD11488   PD        0.441765    0.206471    0.647647     0.005394
PD11489   PD        0.471176    0.177059    0.647647     0.005394
PD11490   PD        0.471176    0.206471    0.677059     0.005394
PD11491   PD        0.500588    0.177059    0.677059     0.005394
PD11492   PD        0.500588    0.206471    0.647647     0.005394
PD11493   PD        0.530000    0.177059    0.647647     0.005394
PD11494   PD        0.530000    0.206471    0.677059     0.005394
PD11496   PD        0.559412    0.206471    0.647647     0.005394
PD11498   PD        0.588824    0.206471    0.677059     0.005394
PD11500   PD        0.618235    0.206471    0.647647     0.005394
PD11540   PD        0.265294    0.265294    0.647647     0.005394
PD11541   PD        0.294706    0.235882    0.647647     0.005394
PD11542   PD        0.294706    0.265294    0.677059     0.005394
PD11543   PD        0.324118    0.235882    0.677059     0.005394
PD11544   PD        0.324118    0.265294    0.647647     0.005394
PD11545   PD        0.353529    0.235882    0.647647     0.005394
PD11546   PD        0.353529    0.265294    0.677059     0.005394
PD11547   PD        0.382941    0.235882    0.677059     0.005394
PD11548   PD        0.382941    0.265294    0.647647     0.005394
PD11549   PD        0.412353    0.235882    0.647647     0.005394
PD11550   PD        0.412353    0.265294    0.677059     0.005394
PD11551   PD        0.441765    0.235882    0.677059     0.005394
AU11552   AU        0.441765    0.265294    0.647647     0.007504
PD11553   PD        0.471176    0.235882    0.647647     0.005394
AU11554   AU        0.471176    0.265294    0.677059     0.007504
PD11555   PD        0.500588    0.235882    0.677059     0.005394
PD11556   PD        0.500588    0.265294    0.647647     0.005394
AU11557   AU        0.530000    0.235882    0.647647     0.007504
PD11558   PD        0.530000    0.265294    0.677059     0.005394
PD11559   PD        0.559412    0.235882    0.677059     0.005394
AU11560   AU        0.559412    0.265294    0.647647     0.007504
PD11561   PD        0.588824    0.235882    0.647647     0.005394
PD11562   PD        0.588824    0.265294    0.677059     0.005394
PD11563   PD        0.618235    0.235882    0.677059     0.005394
AU11564   AU        0.618235    0.265294    0.647647     0.007504
PD11565   PD        0.647647    0.235882    0.647647     0.005394
PD11566   PD        0.647647    0.265294    0.677059     0.005394
PD11568   PD        0.677059    0.265294    0.647647     0.005394
PD11600   PD        0.206471    0.324118    0.647647     0.005394
PD11601   PD        0.235882    0.294706    0.647647     0.005394
PD11602   PD        0.235882    0.324118    0.677059     0.005394
PD11603   PD        0.265294    0.294706    0.677059     0.005394
PD11604   PD        0.265294    0.324118    0.647647     0.005394
PD11605   PD        0.294706    0.294706    0.647647     0.005394
PD11606   PD        0.294706    0.324118    0.677059     0.005394
PD11607   PD        0.324118    0.294706    0.677059     0.005394
AU11608   AU        0.324118    0.324118    0.647647     0.007504
AU11609   AU        0.353529    0.294706    0.647647     0.007504
AU11610   AU        0.353529    0.324118    0.677059     0.007504
PD11611   PD        0.382941    0.294706    0.677059     0.005394
AU11612   AU        0.382941    0.324118    0.647647     0.007504
AU11613   AU        0.412353    0.294706    0.647647     0.007504
AU11614   AU        0.412353    0.324118    0.677059     0.007504
AU11615   AU        0.441765    0.294706    0.677059     0.007504
AU11616   AU        0.441765    0.324118    0.647647     0.007504
AU11617   AU        0.471176    0.294706    0.647647     0.007504
PD11618   PD        0.471176    0.324118    0.677059     0.005394
AU11619   AU        0.500588    0.294706    0.677059     0.007504
AU11620   AU        0.500588    0.324118    0.647647     0.007504
AU11621   AU        0.530000    0.294706    0.647647     0.007504
AU11622   AU        0.530000    0.324118    0.677059     0.007504
AU11623   AU        0.559412    0.294706    0.677059     0.007504
AU11624   AU        0.559412    0.324118    0.647647     0.007504
AU11625   AU        0.588824    0.294706    0.647647     0.007504
AU11626   AU        0.588824    0.324118    0.677059     0.007504
PD11627   PD        0.618235    0.294706    0.677059     0.005394
AU11628   AU        0.618235    0.324118    0.647647     0.007504
PD11629   PD        0.647647    0.294706    0.647647     0.005394
PD11630   PD        0.647647    0.324118    0.677059     0.005394
PD11631   PD        0.677059    0.294706    0.677059     0.005394
PD11632   PD        0.677059    0.324118    0.647647     0.005394
PD11633   PD        0.706471    0.294706    0.647647     0.005394
PD11634   PD        0.706471    0.324118    0.677059     0.005394
PD11636   PD        0.735882    0.324118    0.647647     0.005394
PD11663   PD        0.206471    0.353529    0.677059     0.005394
PD11664   PD        0.206471    0.382941    0.647647     0.005394
PD11665   PD        0.235882    0.353529    0.647647     0.005394
PD11666   PD        0.235882    0.382941    0.677059     0.005394
PD11667   PD        0.265294    0.353529    0.677059     0.005394
AU11668   AU        0.265294    0.382941    0.647647     0.007504
AU11669   AU        0.294706    0.353529    0.647647     0.007504
AU11670   AU        0.294706    0.382941    0.677059     0.007504
AU11671   AU        0.324118    0.353529    0.677059     0.007504
AU11672   AU        0.324118    0.382941    0.647647     0.007504
AU11673   AU        0.353529    0.353529    0.647647     0.007504
AU11674   AU        0.353529    0.382941    0.677059     0.007504
AU11675   AU        0.382941    0.353529    0.677059     0.007504
AU11676   AU        0.382941    0.382941    0.647647     0.007504
AU11677   AU        0.412353    0.353529    0.647647     0.007504
AU11678   AU        0.412353    0.382941    0.677059     0.007504
AU11679   AU        0.441765    0.353529    0.677059     0.007504
AU11680   AU        0.441765    0.382941    0.647647     0.007504
AU11681   AU        0.471176    0.353529    0.647647     0.007504
AU11682   AU        0.471176    0.382941    0.677059     0.007504
AU11683   AU        0.500588    0.353529    0.677059     0.007504
AU11684   AU        0.500588    0.382941    0.647647     0.007504
AU11685   AU        0.530000    0.353529    0.647647     0.007504
AU11686   AU        0.530000    0.382941    0.677059     0.007504
AU11687   AU        0.559412    0.353529    0.677059     0.007504
AU11688   AU        0.559412    0.382941    0.647647     0.007504
AU11689   AU        0.588824    0.353529    0.647647     0.007504
AU11690   AU        0.588824    0.382941    0.677059     0.007504
AU11691   AU        0.618235    0.353529    0.677059     0.007504
AU11692   AU        0.618235    0.382941    0.647647     0.007504
AU11693   AU        0.647647    0.353529    0.647647     0.007504
AU11694   AU        0.647647    0.382941    0.677059     0.007504
PD11695   PD        0.677059    0.353529    0.677059     0.005394
PD11696   PD        0.677059    0.382941    0.647647     0.005394
PD11697   PD        0.706471    0.353529    0.647647     0.005394
PD11698   PD        0.706471    0.382941    0.677059     0.005394
PD11699   PD        0.735882    0.353529    0.677059     0.005394
PD11700   PD        0.735882    0.382941    0.647647     0.005394
PD11725   PD        0.177059    0.412353    0.647647     0.005394
PD11726   PD        0.177059    0.441765    0.677059     0.005394
PD11727   PD        0.206471    0.412353    0.677059     0.005394
PD11728   PD        0.206471    0.441765    0.647647     0.005394
PD11729   PD        0.235882    0.412353    0.647647     0.005394
PD11730   PD        0.235882    0.441765    0.677059     0.005394
PD11731   PD        0.265294    0.412353    0.677059     0.005394
PD11732   PD        0.265294    0.441765    0.647647     0.005394
AU11733   AU        0.294706    0.412353    0.647647     0.007504
PD11734   PD        0.294706    0.441765    0.677059     0.005394
AU11735   AU        0.324118    0.412353    0.677059     0.007504
AU11736   AU        0.324118    0.441765    0.647647     0.007504
AU11737   AU        0.353529    0.412353    0.647647     0.007504
AU11738   AU        0.353529    0.441765    0.677059     0.007504
AU11739   AU        0.382941    0.412353    0.677059     0.007504
AU11740   AU        0.382941    0.441765    0.647647     0.007504
AU11741   AU        0.412353    0.412353    0.647647     0.007504
AU11742   AU        0.412353    0.441765    0.677059     0.007504
AU11743   AU        0.441765    0.412353    0.677059     0.007504
AU11744   AU        0.441765    0.441765    0.647647     0.007504
AU11745   AU        0.471176    0.412353    0.647647     0.007504
AU11746   AU        0.471176    0.441765    0.677059     0.007504
AU11747   AU        0.500588    0.412353    0.677059     0.007504
AU11748   AU        0.500588    0.441765    0.647647     0.007504
AU11749   AU        0.530000    0.412353    0.647647     0.007504
AU11750   AU        0.530000    0.441765    0.677059     0.007504
AU11751   AU        0.559412    0.412353    0.677059     0.007504
AU11752   AU        0.559412    0.441765    0.647647     0.007504
AU11753   AU        0.588824    0.412353    0.647647     0.007504
AU11754   AU        0.588824    0.441765    0.677059     0.007504
AU11755   AU        0.618235    0.412353    0.677059     0.007504
AU11756   AU        0.618235    0.441765    0.647647     0.007504
AU11757   AU        0.647647    0.412353    0.647647     0.007504
AU11758   AU        0.647647    0.441765    0.677059     0.007504
AU11759   AU        0.677059    0.412353    0.677059     0.007504
PD11760   PD        0.677059    0.441765    0.647647     0.005394
AU11761   AU        0.706471    0.412353    0.647647     0.007504
PD11762   PD        0.706471    0.441765    0.677059     0.005394
PD11763   PD        0.735882    0.412353    0.677059     0.005394
PD11764   PD        0.735882    0.441765    0.647647     0.005394
PD11765   PD        0.765294    0.412353    0.647647     0.005394
PD11766   PD        0.765294    0.441765    0.677059     0.005394
PD11789   PD        0.177059    0.471176    0.647647     0.005394
PD11790   PD        0.177059    0.500588    0.677059     0.005394
PD11791   PD        0.206471    0.471176    0.677059     0.005394
PD11792   PD        0.206471    0.500588    0.647647     0.005394
PD11793   PD        0.235882    0.471176    0.647647     0.005394
PD11794   PD        0.235882    0.500588    0.677059     0.005394
AU11795   AU        0.265294    0.471176    0.677059     0.007504
AU11796   AU        0.265294    0.500588    0.647647     0.007504
AU11797   AU        0.294706    0.471176    0.647647     0.007504
PD11798   PD        0.294706    0.500588    0.677059     0.005394
AU11799   AU        0.324118    0.471176    0.677059     0.007504
AU11800   AU        0.324118    0.500588    0.647647     0.007504
AU11801   AU        0.353529    0.471176    0.647647     0.007504
AU11802   AU        0.353529    0.500588    0.677059     0.007504
AU11803   AU        0.382941    0.471176    0.677059     0.007504
AU11804   AU        0.382941    0.500588    0.647647     0.007504
AU11805   AU        0.412353    0.471176    0.647647     0.007504
AU11806   AU        0.412353    0.500588    0.677059     0.007504
AU11807   AU        0.441765    0.471176    0.677059     0.007504
AU11808   AU        0.441765    0.500588    0.647647     0.007504
AU11809   AU        0.471176    0.471176    0.647647     0.007504
AU11810   AU        0.471176    0.500588    0.677059     0.007504
AU11811   AU        0.500588    0.471176    0.677059     0.007504
AU11812   AU        0.500588    0.500588    0.647647     0.007504
AU11813   AU        0.530000    0.471176    0.647647     0.007504
AU11814   AU        0.530000    0.500588    0.677059     0.007504
AU11815   AU        0.559412    0.471176    0.677059     0.007504
AU11816   AU        0.559412    0.500588    0.647647     0.007504
AU11817   AU        0.588824    0.471176    0.647647     0.007504
AU11818   AU        0.588824    0.500588    0.677059     0.007504
AU11819   AU        0.618235    0.471176    0.677059     0.007504
AU11820   AU        0.618235    0.500588    0.647647     0.007504
AU11821   AU        0.647647    0.471176    0.647647     0.007504
AU11822   AU        0.647647    0.500588    0.677059     0.007504
PD11823   PD        0.677059    0.471176    0.677059     0.005394
AU11824   AU        0.677059    0.500588    0.647647     0.007504
PD11825   PD        0.706471    0.471176    0.647647     0.005394
PD11826   PD        0.706471    0.500588    0.677059     0.005394
PD11827   PD        0.735882    0.471176    0.677059     0.005394
PD11828   PD        0.735882    0.500588    0.647647     0.005394
PD11829   PD        0.765294    0.471176    0.647647     0.005394
PD11830   PD        0.765294    0.500588    0.677059     0.005394
PD11853   PD        0.177059    0.530000    0.647647     0.005394
PD11855   PD        0.206471    0.530000    0.677059     0.005394
PD11856   PD        0.206471    0.559412    0.647647     0.005394
AU11857   AU        0.235882    0.530000    0.647647     0.007504
PD11858   PD        0.235882    0.559412    0.677059     0.005394
AU11859   AU        0.265294    0.530000    0.677059     0.007504
AU11860   AU        0.265294    0.559412    0.647647     0.007504
AU11861   AU        0.294706    0.530000    0.647647     0.007504
PD11862   PD        0.294706    0.559412    0.677059     0.005394
AU11863   AU        0.324118    0.530000    0.677059     0.007504
AU11864   AU        0.324118    0.559412    0.647647     0.007504
AU11865   AU        0.353529    0.530000    0.647647     0.007504
AU11866   AU        0.353529    0.559412    0.677059     0.007504
AU11867   AU        0.382941    0.530000    0.677059     0.007504
AU11868   AU        0.382941    0.559412    0.647647     0.007504
AU11869   AU        0.412353    0.530000    0.647647     0.007504
AU11870   AU        0.412353    0.559412    0.677059     0.007504
AU11871   AU        0.441765    0.530000    0.677059     0.007504
AU11872   AU        0.441765    0.559412    0.647647     0.007504
AU11873   AU        0.471176    0.530000    0.647647     0.007504
AU11874   AU        0.471176    0.559412    0.677059     0.007504
AU11875   AU        0.500588    0.530000    0.677059     0.007504
AU11876   AU        0.500588    0.559412    0.647647     0.007504
AU11877   AU        0.530000    0.530000    0.647647     0.007504
AU11878   AU        0.530000    0.559412    0.677059     0.007504
AU11879   AU        0.559412    0.530000    0.677059     0.007504
AU11880   AU        0.559412    0.559412    0.647647     0.007504
AU11881   AU        0.588824    0.530000    0.647647     0.007504
AU11882   AU        0.588824    0.559412    0.677059     0.007504
AU11883   AU        0.618235    0.530000    0.677059     0.007504
AU11884   AU        0.618235    0.559412    0.647647     0.007504
AU11885   AU        0.647647    0.530000    0.647647     0.007504
PD11886   PD        0.647647    0.559412    0.677059     0.005394
PD11887   PD        0.677059    0.530000    0.677059     0.005394
AU11888   AU        0.677059    0.559412    0.647647     0.007504
AU11889   AU        0.706471    0.530000    0.647647     0.007504
PD11890   PD        0.706471    0.559412    0.677059     0.005394
PD11891   PD        0.735882    0.530000    0.677059     0.005394
PD11892   PD        0.735882    0.559412    0.647647     0.005394
PD11893   PD        0.765294    0.530000    0.647647     0.005394
PD11919   PD        0.206471    0.588824    0.677059     0.005394
PD11920   PD        0.206471    0.618235    0.647647     0.005394
PD11921   PD        0.235882    0.588824    0.647647     0.005394
PD11922   PD        0.235882    0.618235    0.677059     0.005394
PD11923   PD        0.265294    0.588824    0.677059     0.005394
PD11924   PD        0.265294    0.618235    0.647647     0.005394
PD11925   PD        0.294706    0.588824    0.647647     0.005394
PD11926   PD        0.294706    0.618235    0.677059     0.005394
AU11927   AU        0.324118    0.588824    0.677059     0.007504
AU11928   AU        0.324118    0.618235    0.647647     0.007504
AU11929   AU        0.353529    0.588824    0.647647     0.007504
PD11930   PD        0.353529    0.618235    0.677059     0.005394
PD11931   PD        0.382941    0.588824    0.677059     0.005394
AU11932   AU        0.382941    0.618235    0.647647     0.007504
AU11933   AU        0.412353    0.588824    0.647647     0.007504
AU11934   AU        0.412353    0.618235    0.677059     0.007504
AU11935   AU        0.441765    0.588824    0.677059     0.007504
AU11936   AU        0.441765    0.618235    0.647647     0.007504
AU11937   AU        0.471176    0.588824    0.647647     0.007504
AU11938   AU        0.471176    0.618235    0.677059     0.007504
AU11939   AU        0.500588    0.588824    0.677059     0.007504
AU11940   AU        0.500588    0.618235    0.647647     0.007504
AU11941   AU        0.530000    0.588824    0.647647     0.007504
AU11942   AU        0.530000    0.618235    0.677059     0.007504
AU11943   AU        0.559412    0.588824    0.677059     0.007504
AU11944   AU        0.559412    0.618235    0.647647     0.007504
AU11945   AU        0.588824    0.588824    0.647647     0.007504
PD11946   PD        0.588824    0.618235    0.677059     0.005394
AU11947   AU        0.618235    0.588824    0.677059     0.007504
AU11948   AU        0.618235    0.618235    0.647647     0.007504
AU11949   AU        0.647647    0.588824    0.647647     0.007504
PD11950   PD        0.647647    0.618235    0.677059     0.005394
PD11951   PD        0.677059    0.588824    0.677059     0.005394
PD11952   PD        0.677059    0.618235    0.647647     0.005394
PD11953   PD        0.706471    0.588824    0.647647     0.005394
PD11954   PD        0.706471    0.618235    0.677059     0.005394
PD11955   PD        0.735882    0.588824    0.677059     0.005394
PD11956   PD        0.735882    0.618235    0.647647     0.005394
PD11985   PD        0.235882    0.647647    0.647647     0.005394
PD11987   PD        0.265294    0.647647    0.677059     0.005394
PD11988   PD        0.265294    0.677059    0.647647     0.005394
PD11989   PD        0.294706    0.647647    0.647647     0.005394
PD11990   PD        0.294706    0.677059    0.677059     0.005394
PD11991   PD        0.324118    0.647647    0.677059     0.005394
PD11992   PD        0.324118    0.677059    0.647647     0.005394
AU11993   AU        0.353529    0.647647    0.647647     0.007504
PD11994   PD        0.353529    0.677059    0.677059     0.005394
PD11995   PD        0.382941    0.647647    0.677059     0.005394
AU11996   AU        0.382941    0.677059    0.647647     0.007504
AU11997   AU        0.412353    0.647647    0.647647     0.007504
AU11998   AU        0.412353    0.677059    0.677059     0.007504
AU11999   AU        0.441765    0.647647    0.677059     0.007504
PD12000   PD        0.441765    0.677059    0.647647     0.005394
AU12001   AU        0.471176    0.647647    0.647647     0.007504
PD12002   PD        0.471176    0.677059    0.677059     0.005394
AU12003   AU        0.500588    0.647647    0.677059     0.007504
AU12004   AU        0.500588    0.677059    0.647647     0.007504
AU12005   AU        0.530000    0.647647    0.647647     0.007504
AU12006   AU        0.530000    0.677059    0.677059     0.007504
AU12007   AU        0.559412    0.647647    0.677059     0.007504
PD12008   PD        0.559412    0.677059    0.647647     0.005394
AU12009   AU        0.588824    0.647647    0.647647     0.007504
PD12010   PD        0.588824    0.677059    0.677059     0.005394
PD12011   PD        0.618235    0.647647    0.677059     0.005394
PD12012   PD        0.618235    0.677059    0.647647     0.005394
PD12013   PD        0.647647    0.647647    0.647647     0.005394
PD12014   PD        0.647647    0.677059    0.677059     0.005394
PD12015   PD        0.677059    0.647647    0.677059     0.005394
PD12016   PD        0.677059    0.677059    0.647647     0.005394
PD12017   PD        0.706471    0.647647    0.647647     0.005394
PD12053   PD        0.294706    0.706471    0.647647     0.005394
PD12055   PD        0.324118    0.706471    0.677059     0.005394
PD12056   PD        0.324118    0.735882    0.647647     0.005394
PD12057   PD        0.353529    0.706471    0.647647     0.005394
PD12058   PD        0.353529    0.735882    0.677059     0.005394
PD12059   PD        0.382941    0.706471    0.677059     0.005394
PD12060   PD        0.382941    0.735882    0.647647     0.005394
PD12061   PD        0.412353    0.706471    0.647647     0.005394
PD12062   PD        0.412353    0.735882    0.677059     0.005394
PD12063   PD        0.441765    0.706471    0.677059     0.005394
PD12064   PD        0.441765    0.735882    0.647647     0.005394
AU12065   AU        0.471176    0.706471    0.647647     0.007504
PD12066   PD        0.471176    0.735882    0.677059     0.005394
PD12067   PD        0.500588    0.706471    0.677059     0.005394
PD12068   PD        0.500588    0.735882    0.647647     0.005394
PD12069   PD        0.530000    0.706471    0.647647     0.005394
PD12070   PD        0.530000    0.735882    0.677059     0.005394
PD12071   PD        0.559412    0.706471    0.677059     0.005394
PD12072   PD        0.559412    0.735882    0.647647     0.005394
PD12073   PD        0.588824    0.706471    0.647647     0.005394
PD12074   PD        0.588824    0.735882    0.677059     0.005394
PD12075   PD        0.618235    0.706471    0.677059     0.005394
PD12076   PD        0.618235    0.735882    0.647647     0.005394
PD12077   PD        0.647647    0.706471    0.647647     0.005394
PD12125   PD        0.412353    0.765294    0.647647     0.005394
PD12127   PD        0.441765    0.765294    0.677059     0.005394
PD12129   PD        0.471176    0.765294    0.647647     0.005394
PD12131   PD        0.500588    0.765294    0.677059     0.005394
PD12133   PD        0.530000    0.765294    0.647647     0.005394
PD12512   PD        0.441765    0.206471    0.706471     0.005394
PD12516   PD        0.500588    0.206471    0.706471     0.005394
PD12568   PD        0.324118    0.265294    0.706471     0.005394
PD12569   PD        0.353529    0.235882    0.706471     0.005394
PD12570   PD        0.353529    0.265294    0.735882     0.005394
PD12572   PD        0.382941    0.265294    0.706471     0.005394
PD12573   PD        0.412353    0.235882    0.706471     0.005394
PD12574   PD        0.412353    0.265294    0.735882     0.005394
PD12575   PD        0.441765    0.235882    0.735882     0.005394
PD12576   PD        0.441765    0.265294    0.706471     0.005394
PD12577   PD        0.471176    0.235882    0.706471     0.005394
PD12578   PD        0.471176    0.265294    0.735882     0.005394
PD12579   PD        0.500588    0.235882    0.735882     0.005394
PD12580   PD        0.500588    0.265294    0.706471     0.005394
PD12581   PD        0.530000    0.235882    0.706471     0.005394
PD12582   PD        0.530000    0.265294    0.735882     0.005394
PD12584   PD        0.559412    0.265294    0.706471     0.005394
PD12585   PD        0.588824    0.235882    0.706471     0.005394
PD12586   PD        0.588824    0.265294    0.735882     0.005394
PD12588   PD        0.618235    0.265294    0.706471     0.005394
PD12628   PD        0.265294    0.324118    0.706471     0.005394
PD12629   PD        0.294706    0.294706    0.706471     0.005394
PD12630   PD        0.294706    0.324118    0.735882     0.005394
PD12631   PD        0.324118    0.294706    0.735882     0.005394
PD12632   PD        0.324118    0.324118    0.706471     0.005394
PD12633   PD        0.353529    0.294706    0.706471     0.005394
PD12634   PD        0.353529    0.324118    0.735882     0.005394
PD12635   PD        0.382941    0.294706    0.735882     0.005394
PD12636   PD        0.382941    0.324118    0.706471     0.005394
PD12637   PD        0.412353    0.294706    0.706471     0.005394
PD12638   PD        0.412353    0.324118    0.735882     0.005394
PD12639   PD        0.441765    0.294706    0.735882     0.005394
PD12640   PD        0.441765    0.324118    0.706471     0.005394
PD12641   PD        0.471176    0.294706    0.706471     0.005394
AU12642   AU        0.471176    0.324118    0.735882     0.007504
PD12643   PD        0.500588    0.294706    0.735882     0.005394
AU12644   AU        0.500588    0.324118    0.706471     0.007504
PD12645   PD        0.530000    0.294706    0.706471     0.005394
PD12646   PD        0.530000    0.324118    0.735882     0.005394
PD12647   PD        0.559412    0.294706    0.735882     0.005394
PD12648   PD        0.559412    0.324118    0.706471     0.005394
PD12649   PD        0.588824    0.294706    0.706471     0.005394
PD12650   PD        0.588824    0.324118    0.735882     0.005394
PD12651   PD        0.618235    0.294706    0.735882     0.005394
PD12652   PD        0.618235    0.324118    0.706471     0.005394
PD12653   PD        0.647647    0.294706    0.706471     0.005394
PD12654   PD        0.647647    0.324118    0.735882     0.005394
PD12656   PD        0.677059    0.324118    0.706471     0.005394
PD12689   PD        0.235882    0.353529    0.706471     0.005394
PD12691   PD        0.265294    0.353529    0.735882     0.005394
PD12692   PD        0.265294    0.382941    0.706471     0.005394
PD12693   PD        0.294706    0.353529    0.706471     0.005394
PD12694   PD        0.294706    0.382941    0.735882     0.005394
PD12695   PD        0.324118    0.353529    0.735882     0.005394
PD12696   PD        0.324118    0.382941    0.706471     0.005394
PD12697   PD        0.353529    0.353529    0.706471     0.005394
PD12698   PD        0.353529    0.382941    0.735882     0.005394
PD12699   PD        0.382941    0.353529    0.735882     0.005394
AU12700   AU        0.382941    0.382941    0.706471     0.007504
PD12701   PD        0.412353    0.353529    0.706471     0.005394
AU12702   AU        0.412353    0.382941    0.735882     0.007504
AU12703   AU        0.441765    0.353529    0.735882     0.007504
AU12704   AU        0.441765    0.382941    0.706471     0.007504
AU12705   AU        0.471176    0.353529    0.706471     0.007504
AU12706   AU        0.471176    0.382941    0.735882     0.007504
AU12707   AU        0.500588    0.353529    0.735882     0.007504
AU12708   AU        0.500588    0.382941    0.706471     0.007504
AU12709   AU        0.530000    0.353529    0.706471     0.007504
AU12710   AU        0.530000    0.382941    0.735882     0.007504
PD12711   PD        0.559412    0.353529    0.735882     0.005394
PD12712   PD        0.559412    0.382941    0.706471     0.005394
PD12713   PD        0.588824    0.353529    0.706471     0.005394
PD12714   PD        0.588824    0.382941    0.735882     0.005394
PD12715   PD        0.618235    0.353529    0.735882     0.005394
PD12716   PD        0.618235    0.382941    0.706471     0.005394
PD12717   PD        0.647647    0.353529    0.706471     0.005394
PD12718   PD        0.647647    0.382941    0.735882     0.005394
PD12719   PD        0.677059    0.353529    0.735882     0.005394
PD12720   PD        0.677059    0.382941    0.706471     0.005394
PD12721   PD        0.706471    0.353529    0.706471     0.005394
PD12752   PD        0.206471    0.441765    0.706471     0.005394
PD12753   PD        0.235882    0.412353    0.706471     0.005394
PD12754   PD        0.235882    0.441765    0.735882     0.005394
PD12755   PD        0.265294    0.412353    0.735882     0.005394
PD12756   PD        0.265294    0.441765    0.706471     0.005394
PD12757   PD        0.294706    0.412353    0.706471     0.005394
PD12758   PD        0.294706    0.441765    0.735882     0.005394
PD12759   PD        0.324118    0.412353    0.735882     0.005394
PD12760   PD        0.324118    0.441765    0.706471     0.005394
AU12761   AU        0.353529    0.412353    0.706471     0.007504
PD12762   PD        0.353529    0.441765    0.735882     0.005394
AU12763   AU        0.382941    0.412353    0.735882     0.007504
AU12764   AU        0.382941    0.441765    0.706471     0.007504
AU12765   AU        0.412353    0.412353    0.706471     0.007504
AU12766   AU        0.412353    0.441765    0.735882     0.007504
AU12767   AU        0.441765    0.412353    0.735882     0.007504
AU12768   AU        0.441765    0.441765    0.706471     0.007504
AU12769   AU        0.471176    0.412353    0.706471     0.007504
AU12770   AU        0.471176    0.441765    0.735882     0.007504
AU12771   AU        0.500588    0.412353    0.735882     0.007504
AU12772   AU        0.500588    0.441765    0.706471     0.007504
AU12773   AU        0.530000    0.412353    0.706471     0.007504
AU12774   AU        0.530000    0.441765    0.735882     0.007504
AU12775   AU        0.559412    0.412353    0.735882     0.007504
AU12776   AU        0.559412    0.441765    0.706471     0.007504
AU12777   AU        0.588824    0.412353    0.706471     0.007504
PD12778   PD        0.588824    0.441765    0.735882     0.005394
PD12779   PD        0.618235    0.412353    0.735882     0.005394
PD12780   PD        0.618235    0.441765    0.706471     0.005394
PD12781   PD        0.647647    0.412353    0.706471     0.005394
PD12782   PD        0.647647    0.441765    0.735882     0.005394
PD12783   PD        0.677059    0.412353    0.735882     0.005394
PD12784   PD        0.677059    0.441765    0.706471     0.005394
PD12785   PD        0.706471    0.412353    0.706471     0.005394
PD12786   PD        0.706471    0.441765    0.735882     0.005394
PD12788   PD        0.735882    0.441765    0.706471     0.005394
PD12816   PD        0.206471    0.500588    0.706471     0.005394
PD12817   PD        0.235882    0.471176    0.706471     0.005394
PD12818   PD        0.235882    0.500588    0.735882     0.005394
PD12819   PD        0.265294    0.471176    0.735882     0.005394
PD12820   PD        0.265294    0.500588    0.706471     0.005394
PD12821   PD        0.294706    0.471176    0.706471     0.005394
PD12822   PD        0.294706    0.500588    0.735882     0.005394
PD12823   PD        0.324118    0.471176    0.735882     0.005394
PD12824   PD        0.324118    0.500588    0.706471     0.005394
AU12825   AU        0.353529    0.471176    0.706471     0.007504
PD12826   PD        0.353529    0.500588    0.735882     0.005394
AU12827   AU        0.382941    0.471176    0.735882     0.007504
AU12828   AU        0.382941    0.500588    0.706471     0.007504
AU12829   AU        0.412353    0.471176    0.706471     0.007504
AU12830   AU        0.412353    0.500588    0.735882     0.007504
AU12831   AU        0.441765    0.471176    0.735882     0.007504
AU12832   AU        0.441765    0.500588    0.706471     0.007504
AU12833   AU        0.471176    0.471176    0.706471     0.007504
AU12834   AU        0.471176    0.500588    0.735882     0.007504
AU12835   AU        0.500588    0.471176    0.735882     0.007504
AU12836   AU        0.500588    0.500588    0.706471     0.007504
AU12837   AU        0.530000    0.471176    0.706471     0.007504
AU12838   AU        0.530000    0.500588    0.735882     0.007504
AU12839   AU        0.559412    0.471176    0.735882     0.007504
AU12840   AU        0.559412    0.500588    0.706471     0.007504
AU12841   AU        0.588824    0.471176    0.706471     0.007504
AU12842   AU        0.588824    0.500588    0.735882     0.007504
PD12843   PD        0.618235    0.471176    0.735882     0.005394
AU12844   AU        0.618235    0.500588    0.706471     0.007504
PD12845   PD        0.647647    0.471176    0.706471     0.005394
PD12846   PD        0.647647    0.500588    0.735882     0.005394
PD12847   PD        0.677059    0.471176    0.735882     0.005394
PD12848   PD        0.677059    0.500588    0.706471     0.005394
PD12849   PD        0.706471    0.471176    0.706471     0.005394
PD12850   PD        0.706471    0.500588    0.735882     0.005394
PD12852   PD        0.735882    0.500588    0.706471     0.005394
PD12881   PD        0.235882    0.530000    0.706471     0.005394
PD12883   PD        0.265294    0.530000    0.735882     0.005394
PD12884   PD        0.265294    0.559412    0.706471     0.005394
AU12885   AU        0.294706    0.530000    0.706471     0.007504
PD12886   PD        0.294706    0.559412    0.735882     0.005394
PD12887   PD        0.324118    0.530000    0.735882     0.005394
PD12888   PD        0.324118    0.559412    0.706471     0.005394
AU12889   AU        0.353529    0.530000    0.706471     0.007504
PD12890   PD        0.353529    0.559412    0.735882     0.005394
AU12891   AU        0.382941    0.530000    0.735882     0.007504
AU12892   AU        0.382941    0.559412    0.706471     0.007504
AU12893   AU        0.412353    0.530000    0.706471     0.007504
AU12894   AU        0.412353    0.559412    0.735882     0.007504
AU12895   AU        0.441765    0.530000    0.735882     0.007504
AU12896   AU        0.441765    0.559412    0.706471     0.007504
AU12897   AU        0.471176    0.530000    0.706471     0.007504
PD12898   PD        0.471176    0.559412    0.735882     0.005394
AU12899   AU        0.500588    0.530000    0.735882     0.007504
AU12900   AU        0.500588    0.559412    0.706471     0.007504
AU12901   AU        0.530000    0.530000    0.706471     0.007504
PD12902   PD        0.530000    0.559412    0.735882     0.005394
PD12903   PD        0.559412    0.530000    0.735882     0.005394
AU12904   AU        0.559412    0.559412    0.706471     0.007504
AU12905   AU        0.588824    0.530000    0.706471     0.007504
AU12906   AU        0.588824    0.559412    0.735882     0.007504
PD12907   PD        0.618235    0.530000    0.735882     0.005394
PD12908   PD        0.618235    0.559412    0.706471     0.005394
PD12909   PD        0.647647    0.530000    0.706471     0.005394
PD12910   PD        0.647647    0.559412    0.735882     0.005394
PD12911   PD        0.677059    0.530000    0.735882     0.005394
PD12912   PD        0.677059    0.559412    0.706471     0.005394
PD12913   PD        0.706471    0.530000    0.706471     0.005394
PD12945   PD        0.235882    0.588824    0.706471     0.005394
PD12947   PD        0.265294    0.588824    0.735882     0.005394
PD12948   PD        0.265294    0.618235    0.706471     0.005394
PD12949   PD        0.294706    0.588824    0.706471     0.005394
PD12950   PD        0.294706    0.618235    0.735882     0.005394
PD12951   PD        0.324118    0.588824    0.735882     0.005394
AU12952   AU        0.324118    0.618235    0.706471     0.007504
PD12953   PD        0.353529    0.588824    0.706471     0.005394
PD12954   PD        0.353529    0.618235    0.735882     0.005394
AU12955   AU        0.382941    0.588824    0.735882     0.007504
AU12956   AU        0.382941    0.618235    0.706471     0.007504
PD12957   PD        0.412353    0.588824    0.706471     0.005394
PD12958   PD        0.412353    0.618235    0.735882     0.005394
AU12959   AU        0.441765    0.588824    0.735882     0.007504
AU12960   AU        0.441765    0.618235    0.706471     0.007504
PD12961   PD        0.471176    0.588824    0.706471     0.005394
PD12962   PD        0.471176    0.618235    0.735882     0.005394
PD12963   PD        0.500588    0.588824    0.735882     0.005394
AU12964   AU        0.500588    0.618235    0.706471     0.007504
AU12965   AU        0.530000    0.588824    0.706471     0.007504
PD12966   PD        0.530000    0.618235    0.735882     0.005394
PD12967   PD        0.559412    0.588824    0.735882     0.005394
AU12968   AU        0.559412    0.618235    0.706471     0.007504
AU12969   AU        0.588824    0.588824    0.706471     0.007504
PD12970   PD        0.588824    0.618235    0.735882     0.005394
PD12971   PD        0.618235    0.588824    0.735882     0.005394
PD12972   PD        0.618235    0.618235    0.706471     0.005394
PD12973   PD        0.647647    0.588824    0.706471     0.005394
PD12974   PD        0.647647    0.618235    0.735882     0.005394
PD12975   PD        0.677059    0.588824    0.735882     0.005394
PD12976   PD        0.677059    0.618235    0.706471     0.005394
PD12977   PD        0.706471    0.588824    0.706471     0.005394
PD13013   PD        0.294706    0.647647    0.706471     0.005394
PD13015   PD        0.324118    0.647647    0.735882     0.005394
PD13016   PD        0.324118    0.677059    0.706471     0.005394
PD13017   PD        0.353529    0.647647    0.706471     0.005394
PD13018   PD        0.353529    0.677059    0.735882     0.005394
PD13019   PD        0.382941    0.647647    0.735882     0.005394
PD13020   PD        0.382941    0.677059    0.706471     0.005394
PD13021   PD        0.412353    0.647647    0.706471     0.005394
PD13022   PD        0.412353    0.677059    0.735882     0.005394
PD13023   PD        0.441765    0.647647    0.735882     0.005394
PD13024   PD        0.441765    0.677059    0.706471     0.005394
PD13025   PD        0.471176    0.647647    0.706471     0.005394
PD13026   PD        0.471176    0.677059    0.735882     0.005394
PD13027   PD        0.500588    0.647647    0.735882     0.005394
PD13028   PD        0.500588    0.677059    0.706471     0.005394
PD13029   PD        0.530000    0.647647    0.706471     0.005394
PD13030   PD        0.530000    0.677059    0.735882     0.005394
PD13031   PD        0.559412    0.647647    0.735882     0.005394
PD13032   PD        0.559412    0.677059    0.706471     0.005394
PD13033   PD        0.588824    0.647647    0.706471     0.005394
PD13034   PD        0.588824    0.677059    0.735882     0.005394
PD13035   PD        0.618235    0.647647    0.735882     0.005394
PD13036   PD        0.618235    0.677059    0.706471     0.005394
PD13037   PD        0.647647    0.647647    0.706471     0.005394
PD13081   PD        0.353529    0.706471    0.706471     0.005394
PD13085   PD        0.412353    0.706471    0.706471     0.005394
PD13087   PD        0.441765    0.706471    0.735882     0.005394
PD13088   PD        0.441765    0.735882    0.706471     0.005394
PD13089   PD        0.471176    0.706471    0.706471     0.005394
PD13091   PD        0.500588    0.706471    0.735882     0.005394
PD13092   PD        0.500588    0.735882    0.706471     0.005394
PD13093   PD        0.530000    0.706471    0.706471     0.005394
PD13097   PD        0.588824    0.706471    0.706471     0.005394
PD13600   PD        0.441765    0.265294    0.765294     0.005394
PD13604   PD        0.500588    0.265294    0.765294     0.005394
PD13656   PD        0.324118    0.324118    0.765294     0.005394
PD13660   PD        0.382941    0.324118    0.765294     0.005394
PD13661   PD        0.412353    0.294706    0.765294     0.005394
PD13662   PD        0.412353    0.324118    0.794706     0.005394
PD13664   PD        0.441765    0.324118    0.765294     0.005394
PD13665   PD        0.471176    0.294706    0.765294     0.005394
PD13666   PD        0.471176    0.324118    0.794706     0.005394
PD13668   PD        0.500588    0.324118    0.765294     0.005394
PD13669   PD        0.530000    0.294706    0.765294     0.005394
PD13670   PD        0.530000    0.324118    0.794706     0.005394
PD13672   PD        0.559412    0.324118    0.765294     0.005394
PD13676   PD        0.618235    0.324118    0.765294     0.005394
PD13720   PD        0.324118    0.382941    0.765294     0.005394
PD13721   PD        0.353529    0.353529    0.765294     0.005394
PD13722   PD        0.353529    0.382941    0.794706     0.005394
PD13723   PD        0.382941    0.353529    0.794706     0.005394
PD13724   PD        0.382941    0.382941    0.765294     0.005394
PD13725   PD        0.412353    0.353529    0.765294     0.005394
PD13726   PD        0.412353    0.382941    0.794706     0.005394
PD13727   PD        0.441765    0.353529    0.794706     0.005394
PD13728   PD        0.441765    0.382941    0.765294     0.005394
PD13729   PD        0.471176    0.353529    0.765294     0.005394
PD13730   PD        0.471176    0.382941    0.794706     0.005394
PD13731   PD        0.500588    0.353529    0.794706     0.005394
PD13732   PD        0.500588    0.382941    0.765294     0.005394
PD13733   PD        0.530000    0.353529    0.765294     0.005394
PD13734   PD        0.530000    0.382941    0.794706     0.005394
PD13735   PD        0.559412    0.353529    0.794706     0.005394
PD13736   PD        0.559412    0.382941    0.765294     0.005394
PD13737   PD        0.588824    0.353529    0.765294     0.005394
PD13738   PD        0.588824    0.382941    0.794706     0.005394
PD13740   PD        0.618235    0.382941    0.765294     0.005394
PD13780   PD        0.265294    0.441765    0.765294     0.005394
PD13781   PD        0.294706    0.412353    0.765294     0.005394
PD13783   PD        0.324118    0.412353    0.794706     0.005394
PD13784   PD        0.324118    0.441765    0.765294     0.005394
PD13785   PD        0.353529    0.412353    0.765294     0.005394
PD13786   PD        0.353529    0.441765    0.794706     0.005394
PD13787   PD        0.382941    0.412353    0.794706     0.005394
PD13788   PD        0.382941    0.441765    0.765294     0.005394
PD13789   PD        0.412353    0.412353    0.765294     0.005394
PD13790   PD        0.412353    0.441765    0.794706     0.005394
PD13791   PD        0.441765    0.412353    0.794706     0.005394
AU13792   AU        0.441765    0.441765    0.765294     0.007504
AU13793   AU        0.471176    0.412353    0.765294     0.007504
PD13794   PD        0.471176    0.441765    0.794706     0.005394
PD13795   PD        0.500588    0.412353    0.794706     0.005394
PD13796   PD        0.500588    0.441765    0.765294     0.005394
PD13797   PD        0.530000    0.412353    0.765294     0.005394
PD13798   PD        0.530000    0.441765    0.794706     0.005394
PD13799   PD        0.559412    0.412353    0.794706     0.005394
PD13800   PD        0.559412    0.441765    0.765294     0.005394
PD13801   PD        0.588824    0.412353    0.765294     0.005394
PD13802   PD        0.588824    0.441765    0.794706     0.005394
PD13803   PD        0.618235    0.412353    0.794706     0.005394
PD13804   PD        0.618235    0.441765    0.765294     0.005394
PD13805   PD        0.647647    0.412353    0.765294     0.005394
PD13808   PD        0.677059    0.441765    0.765294     0.005394
PD13844   PD        0.265294    0.500588    0.765294     0.005394
PD13845   PD        0.294706    0.471176    0.765294     0.005394
PD13847   PD        0.324118    0.471176    0.794706     0.005394
PD13848   PD        0.324118    0.500588    0.765294     0.005394
PD13849   PD        0.353529    0.471176    0.765294     0.005394
PD13850   PD        0.353529    0.500588    0.794706     0.005394
PD13851   PD        0.382941    0.471176    0.794706     0.005394
PD13852   PD        0.382941    0.500588    0.765294     0.005394
PD13853   PD        0.412353    0.471176    0.765294     0.005394
PD13854   PD        0.412353    0.500588    0.794706     0.005394
PD13855   PD        0.441765    0.471176    0.794706     0.005394
PD13856   PD        0.441765    0.500588    0.765294     0.005394
PD13857   PD        0.471176    0.471176    0.765294     0.005394
PD13858   PD        0.471176    0.500588    0.794706     0.005394
PD13859   PD        0.500588    0.471176    0.794706     0.005394
PD13860   PD        0.500588    0.500588    0.765294     0.005394
AU13861   AU        0.530000    0.471176    0.765294     0.007504
PD13862   PD        0.530000    0.500588    0.794706     0.005394
PD13863   PD        0.559412    0.471176    0.794706     0.005394
PD13864   PD        0.559412    0.500588    0.765294     0.005394
PD13865   PD        0.588824    0.471176    0.765294     0.005394
PD13866   PD        0.588824    0.500588    0.794706     0.005394
PD13867   PD        0.618235    0.471176    0.794706     0.005394
PD13868   PD        0.618235    0.500588    0.765294     0.005394
PD13869   PD        0.647647    0.471176    0.765294     0.005394
PD13872   PD        0.677059    0.500588    0.765294     0.005394
PD13909   PD        0.294706    0.530000    0.765294     0.005394
PD13911   PD        0.324118    0.530000    0.794706     0.005394
PD13912   PD        0.324118    0.559412    0.765294     0.005394
PD13913   PD        0.353529    0.530000    0.765294     0.005394
PD13914   PD        0.353529    0.559412    0.794706     0.005394
PD13915   PD        0.382941    0.530000    0.794706     0.005394
PD13916   PD        0.382941    0.559412    0.765294     0.005394
PD13917   PD        0.412353    0.530000    0.765294     0.005394
PD13918   PD        0.412353    0.559412    0.794706     0.005394
PD13919   PD        0.441765    0.530000    0.794706     0.005394
PD13920   PD        0.441765    0.559412    0.765294     0.005394
AU13921   AU        0.471176    0.530000    0.765294     0.007504
PD13922   PD        0.471176    0.559412    0.794706     0.005394
PD13923   PD        0.500588    0.530000    0.794706     0.005394
PD13924   PD        0.500588    0.559412    0.765294     0.005394
PD13925   PD        0.530000    0.530000    0.765294     0.005394
PD13926   PD        0.530000    0.559412    0.794706     0.005394
PD13927   PD        0.559412    0.530000    0.794706     0.005394
PD13928   PD        0.559412    0.559412    0.765294     0.005394
PD13929   PD        0.588824    0.530000    0.765294     0.005394
PD13930   PD        0.588824    0.559412    0.794706     0.005394
PD13931   PD        0.618235    0.530000    0.794706     0.005394
PD13932   PD        0.618235    0.559412    0.765294     0.005394
PD13933   PD        0.647647    0.530000    0.765294     0.005394
PD13976   PD        0.324118    0.618235    0.765294     0.005394
PD13977   PD        0.353529    0.588824    0.765294     0.005394
PD13979   PD        0.382941    0.588824    0.794706     0.005394
PD13980   PD        0.382941    0.618235    0.765294     0.005394
PD13981   PD        0.412353    0.588824    0.765294     0.005394
PD13982   PD        0.412353    0.618235    0.794706     0.005394
PD13983   PD        0.441765    0.588824    0.794706     0.005394
PD13984   PD        0.441765    0.618235    0.765294     0.005394
PD13985   PD        0.471176    0.588824    0.765294     0.005394
PD13986   PD        0.471176    0.618235    0.794706     0.005394
PD13987   PD        0.500588    0.588824    0.794706     0.005394
PD13988   PD        0.500588    0.618235    0.765294     0.005394
PD13989   PD        0.530000    0.588824    0.765294     0.005394
PD13990   PD        0.530000    0.618235    0.794706     0.005394
PD13991   PD        0.559412    0.588824    0.794706     0.005394
PD13992   PD        0.559412    0.618235    0.765294     0.005394
PD13993   PD        0.588824    0.588824    0.765294     0.005394
PD13996   PD        0.618235    0.618235    0.765294     0.005394
PD14045   PD        0.412353    0.647647    0.765294     0.005394
PD14048   PD        0.441765    0.677059    0.765294     0.005394
PD14049   PD        0.471176    0.647647    0.765294     0.005394
PD14052   PD        0.500588    0.677059    0.765294     0.005394
PD14053   PD        0.530000    0.647647    0.765294     0.005394
PD14816   PD        0.441765    0.441765    0.824118     0.005394
PD14817   PD        0.471176    0.412353    0.824118     0.005394
PD14820   PD        0.500588    0.441765    0.824118     0.005394
PD14877   PD        0.412353    0.471176    0.824118     0.005394
PD14880   PD        0.441765    0.500588    0.824118     0.005394
PD14881   PD        0.471176    0.471176    0.824118     0.005394
PD14884   PD        0.500588    0.500588    0.824118     0.005394
PD14885   PD        0.530000    0.471176    0.824118     0.005394
PD14945   PD        0.471176    0.530000    0.824118     0.005394
