data_00001
_audit_creation_method   'DISCUS'

_data_chemical_name_common 'Au.cell: Pearson 85'

_cell_length_a             57.1046
_cell_length_b             57.1046
_cell_length_c             57.1046
_cell_angle_alpha     90.0000
_cell_angle_beta      90.0000
_cell_angle_gamma     90.0000

_symmetry_space_group_name_H-M   'P1              '

loop_
_atom_site_label
_atom_site_symbol
_atom_site_fract_x
_atom_site_fract_y
_atom_site_fract_z
_atom_site_u_iso_or_equiv
PD1   PD        0.357857    0.250714    0.036429     0.005394
PD2   PD        0.429286    0.250714    0.036429     0.005394
PD3   PD        0.500714    0.250714    0.036429     0.005394
PD4   PD        0.286429    0.322143    0.036429     0.005394
PD5   PD        0.322143    0.286429    0.036429     0.005394
AU6   AU        0.357857    0.322143    0.036429     0.007504
AU7   AU        0.393571    0.286429    0.036429     0.007504
PD8   PD        0.429286    0.322143    0.036429     0.005394
PD9   PD        0.465000    0.286429    0.036429     0.005394
AU10   AU        0.500714    0.322143    0.036429     0.007504
AU11   AU        0.536429    0.286429    0.036429     0.007504
AU12   AU        0.572143    0.322143    0.036429     0.007504
AU13   AU        0.250714    0.357857    0.036429     0.007504
PD14   PD        0.286429    0.393571    0.036429     0.005394
AU15   AU        0.322143    0.357857    0.036429     0.007504
PD16   PD        0.357857    0.393571    0.036429     0.005394
AU17   AU        0.393571    0.357857    0.036429     0.007504
PD18   PD        0.393571    0.393571    0.000714     0.005394
PD19   PD        0.429286    0.357857    0.000714     0.005394
PD20   PD        0.429286    0.393571    0.036429     0.005394
AU21   AU        0.465000    0.357857    0.036429     0.007504
PD22   PD        0.465000    0.393571    0.000714     0.005394
PD23   PD        0.500714    0.393571    0.036429     0.005394
AU24   AU        0.536429    0.357857    0.036429     0.007504
AU25   AU        0.572143    0.393571    0.036429     0.007504
PD26   PD        0.607857    0.357857    0.036429     0.005394
PD27   PD        0.250714    0.429286    0.036429     0.005394
PD28   PD        0.286429    0.465000    0.036429     0.005394
PD29   PD        0.322143    0.429286    0.036429     0.005394
AU30   AU        0.357857    0.429286    0.000714     0.007504
PD31   PD        0.357857    0.465000    0.036429     0.005394
PD32   PD        0.393571    0.429286    0.036429     0.005394
PD33   PD        0.393571    0.465000    0.000714     0.005394
AU34   AU        0.429286    0.429286    0.000714     0.007504
AU35   AU        0.429286    0.465000    0.036429     0.007504
AU36   AU        0.465000    0.429286    0.036429     0.007504
PD37   PD        0.465000    0.465000    0.000714     0.005394
PD38   PD        0.500714    0.429286    0.000714     0.005394
PD39   PD        0.500714    0.465000    0.036429     0.005394
PD40   PD        0.536429    0.429286    0.036429     0.005394
PD41   PD        0.572143    0.465000    0.036429     0.005394
PD42   PD        0.607857    0.429286    0.036429     0.005394
PD43   PD        0.250714    0.500714    0.036429     0.005394
PD44   PD        0.286429    0.536429    0.036429     0.005394
PD45   PD        0.322143    0.500714    0.036429     0.005394
AU46   AU        0.357857    0.536429    0.036429     0.007504
AU47   AU        0.393571    0.500714    0.036429     0.007504
AU48   AU        0.429286    0.500714    0.000714     0.007504
AU49   AU        0.429286    0.536429    0.036429     0.007504
AU50   AU        0.465000    0.500714    0.036429     0.007504
AU51   AU        0.500714    0.536429    0.036429     0.007504
AU52   AU        0.536429    0.500714    0.036429     0.007504
PD53   PD        0.572143    0.536429    0.036429     0.005394
PD54   PD        0.607857    0.500714    0.036429     0.005394
PD55   PD        0.322143    0.572143    0.036429     0.005394
AU56   AU        0.357857    0.607857    0.036429     0.007504
AU57   AU        0.393571    0.572143    0.036429     0.007504
PD58   PD        0.429286    0.607857    0.036429     0.005394
AU59   AU        0.465000    0.572143    0.036429     0.007504
PD60   PD        0.500714    0.607857    0.036429     0.005394
AU61   AU        0.536429    0.572143    0.036429     0.007504
AU62   AU        0.286429    0.179286    0.107857     0.007504
AU63   AU        0.357857    0.179286    0.107857     0.007504
AU64   AU        0.393571    0.143571    0.107857     0.007504
PD65   PD        0.393571    0.179286    0.072143     0.005394
PD66   PD        0.429286    0.179286    0.107857     0.005394
AU67   AU        0.465000    0.143571    0.107857     0.007504
PD68   PD        0.465000    0.179286    0.072143     0.005394
AU69   AU        0.500714    0.179286    0.107857     0.007504
PD70   PD        0.572143    0.179286    0.107857     0.005394
PD71   PD        0.215000    0.250714    0.107857     0.005394
PD72   PD        0.250714    0.215000    0.107857     0.005394
AU73   AU        0.250714    0.250714    0.072143     0.007504
PD74   PD        0.286429    0.250714    0.107857     0.005394
PD75   PD        0.322143    0.215000    0.107857     0.005394
AU76   AU        0.322143    0.250714    0.072143     0.007504
AU77   AU        0.357857    0.215000    0.072143     0.007504
PD78   PD        0.357857    0.250714    0.107857     0.005394
AU79   AU        0.393571    0.215000    0.107857     0.007504
PD80   PD        0.393571    0.250714    0.072143     0.005394
AU81   AU        0.429286    0.215000    0.072143     0.007504
AU82   AU        0.429286    0.250714    0.107857     0.007504
PD83   PD        0.465000    0.215000    0.107857     0.005394
PD84   PD        0.465000    0.250714    0.072143     0.005394
PD85   PD        0.500714    0.215000    0.072143     0.005394
PD86   PD        0.500714    0.250714    0.107857     0.005394
PD87   PD        0.536429    0.215000    0.107857     0.005394
PD88   PD        0.536429    0.250714    0.072143     0.005394
PD89   PD        0.572143    0.250714    0.107857     0.005394
AU90   AU        0.607857    0.215000    0.107857     0.007504
AU91   AU        0.607857    0.250714    0.072143     0.007504
AU92   AU        0.643571    0.250714    0.107857     0.007504
PD93   PD        0.179286    0.286429    0.107857     0.005394
PD94   PD        0.215000    0.322143    0.107857     0.005394
AU95   AU        0.250714    0.286429    0.107857     0.007504
AU96   AU        0.250714    0.322143    0.072143     0.007504
AU97   AU        0.286429    0.286429    0.072143     0.007504
PD98   PD        0.286429    0.322143    0.107857     0.005394
AU99   AU        0.322143    0.286429    0.107857     0.007504
AU100   AU        0.322143    0.322143    0.072143     0.007504
AU101   AU        0.357857    0.286429    0.072143     0.007504
AU102   AU        0.357857    0.322143    0.107857     0.007504
AU103   AU        0.393571    0.286429    0.107857     0.007504
PD104   PD        0.393571    0.322143    0.072143     0.005394
PD105   PD        0.429286    0.286429    0.072143     0.005394
PD106   PD        0.429286    0.322143    0.107857     0.005394
PD107   PD        0.465000    0.286429    0.107857     0.005394
PD108   PD        0.465000    0.322143    0.072143     0.005394
PD109   PD        0.500714    0.286429    0.072143     0.005394
AU110   AU        0.500714    0.322143    0.107857     0.007504
AU111   AU        0.536429    0.286429    0.107857     0.007504
PD112   PD        0.536429    0.322143    0.072143     0.005394
PD113   PD        0.572143    0.286429    0.072143     0.005394
PD114   PD        0.572143    0.322143    0.107857     0.005394
AU115   AU        0.607857    0.286429    0.107857     0.007504
AU116   AU        0.607857    0.322143    0.072143     0.007504
PD117   PD        0.643571    0.322143    0.107857     0.005394
AU118   AU        0.679286    0.286429    0.107857     0.007504
PD119   PD        0.143571    0.393571    0.107857     0.005394
AU120   AU        0.179286    0.357857    0.107857     0.007504
AU121   AU        0.179286    0.393571    0.072143     0.007504
AU122   AU        0.215000    0.357857    0.072143     0.007504
PD123   PD        0.215000    0.393571    0.107857     0.005394
AU124   AU        0.250714    0.357857    0.107857     0.007504
PD125   PD        0.250714    0.393571    0.072143     0.005394
AU126   AU        0.286429    0.357857    0.072143     0.007504
PD127   PD        0.286429    0.393571    0.107857     0.005394
AU128   AU        0.322143    0.357857    0.107857     0.007504
AU129   AU        0.322143    0.393571    0.072143     0.007504
AU130   AU        0.357857    0.357857    0.072143     0.007504
AU131   AU        0.357857    0.393571    0.107857     0.007504
AU132   AU        0.393571    0.357857    0.107857     0.007504
PD133   PD        0.393571    0.393571    0.072143     0.005394
PD134   PD        0.429286    0.357857    0.072143     0.005394
AU135   AU        0.429286    0.393571    0.107857     0.007504
AU136   AU        0.465000    0.357857    0.107857     0.007504
PD137   PD        0.465000    0.393571    0.072143     0.005394
PD138   PD        0.500714    0.357857    0.072143     0.005394
AU139   AU        0.500714    0.393571    0.107857     0.007504
PD140   PD        0.536429    0.357857    0.107857     0.005394
AU141   AU        0.536429    0.393571    0.072143     0.007504
PD142   PD        0.572143    0.357857    0.072143     0.005394
AU143   AU        0.572143    0.393571    0.107857     0.007504
PD144   PD        0.607857    0.357857    0.107857     0.005394
PD145   PD        0.607857    0.393571    0.072143     0.005394
AU146   AU        0.643571    0.357857    0.072143     0.007504
PD147   PD        0.643571    0.393571    0.107857     0.005394
AU148   AU        0.679286    0.357857    0.107857     0.007504
PD149   PD        0.679286    0.393571    0.072143     0.005394
PD150   PD        0.715000    0.393571    0.107857     0.005394
AU151   AU        0.143571    0.465000    0.107857     0.007504
PD152   PD        0.179286    0.429286    0.107857     0.005394
AU153   AU        0.179286    0.465000    0.072143     0.007504
PD154   PD        0.215000    0.429286    0.072143     0.005394
AU155   AU        0.215000    0.465000    0.107857     0.007504
PD156   PD        0.250714    0.429286    0.107857     0.005394
PD157   PD        0.250714    0.465000    0.072143     0.005394
PD158   PD        0.286429    0.429286    0.072143     0.005394
AU159   AU        0.286429    0.465000    0.107857     0.007504
AU160   AU        0.322143    0.429286    0.107857     0.007504
AU161   AU        0.322143    0.465000    0.072143     0.007504
PD162   PD        0.357857    0.429286    0.072143     0.005394
PD163   PD        0.357857    0.465000    0.107857     0.005394
PD164   PD        0.393571    0.429286    0.107857     0.005394
AU165   AU        0.393571    0.465000    0.072143     0.007504
AU166   AU        0.429286    0.429286    0.072143     0.007504
PD167   PD        0.429286    0.465000    0.107857     0.005394
PD168   PD        0.465000    0.429286    0.107857     0.005394
PD169   PD        0.465000    0.465000    0.072143     0.005394
AU170   AU        0.500714    0.429286    0.072143     0.007504
PD171   PD        0.500714    0.465000    0.107857     0.005394
AU172   AU        0.536429    0.429286    0.107857     0.007504
PD173   PD        0.536429    0.465000    0.072143     0.005394
AU174   AU        0.572143    0.429286    0.072143     0.007504
PD175   PD        0.572143    0.465000    0.107857     0.005394
AU176   AU        0.607857    0.429286    0.107857     0.007504
PD177   PD        0.607857    0.465000    0.072143     0.005394
AU178   AU        0.643571    0.429286    0.072143     0.007504
PD179   PD        0.643571    0.465000    0.107857     0.005394
PD180   PD        0.679286    0.429286    0.107857     0.005394
AU181   AU        0.679286    0.465000    0.072143     0.007504
AU182   AU        0.715000    0.465000    0.107857     0.007504
AU183   AU        0.179286    0.500714    0.107857     0.007504
PD184   PD        0.215000    0.500714    0.072143     0.005394
PD185   PD        0.215000    0.536429    0.107857     0.005394
PD186   PD        0.250714    0.500714    0.107857     0.005394
PD187   PD        0.250714    0.536429    0.072143     0.005394
AU188   AU        0.286429    0.500714    0.072143     0.007504
PD189   PD        0.286429    0.536429    0.107857     0.005394
AU190   AU        0.322143    0.500714    0.107857     0.007504
PD191   PD        0.322143    0.536429    0.072143     0.005394
PD192   PD        0.357857    0.500714    0.072143     0.005394
PD193   PD        0.357857    0.536429    0.107857     0.005394
PD194   PD        0.393571    0.500714    0.107857     0.005394
PD195   PD        0.393571    0.536429    0.072143     0.005394
PD196   PD        0.429286    0.500714    0.072143     0.005394
PD197   PD        0.429286    0.536429    0.107857     0.005394
AU198   AU        0.465000    0.500714    0.107857     0.007504
PD199   PD        0.465000    0.536429    0.072143     0.005394
AU200   AU        0.500714    0.500714    0.072143     0.007504
PD201   PD        0.500714    0.536429    0.107857     0.005394
PD202   PD        0.536429    0.500714    0.107857     0.005394
AU203   AU        0.536429    0.536429    0.072143     0.007504
AU204   AU        0.572143    0.500714    0.072143     0.007504
PD205   PD        0.572143    0.536429    0.107857     0.005394
AU206   AU        0.607857    0.500714    0.107857     0.007504
AU207   AU        0.607857    0.536429    0.072143     0.007504
PD208   PD        0.643571    0.500714    0.072143     0.005394
AU209   AU        0.643571    0.536429    0.107857     0.007504
AU210   AU        0.679286    0.500714    0.107857     0.007504
PD211   PD        0.179286    0.572143    0.107857     0.005394
AU212   AU        0.215000    0.607857    0.107857     0.007504
PD213   PD        0.250714    0.572143    0.107857     0.005394
AU214   AU        0.250714    0.607857    0.072143     0.007504
PD215   PD        0.286429    0.572143    0.072143     0.005394
AU216   AU        0.286429    0.607857    0.107857     0.007504
PD217   PD        0.322143    0.572143    0.107857     0.005394
AU218   AU        0.322143    0.607857    0.072143     0.007504
PD219   PD        0.357857    0.572143    0.072143     0.005394
PD220   PD        0.357857    0.607857    0.107857     0.005394
AU221   AU        0.393571    0.572143    0.107857     0.007504
AU222   AU        0.393571    0.607857    0.072143     0.007504
PD223   PD        0.429286    0.572143    0.072143     0.005394
PD224   PD        0.429286    0.607857    0.107857     0.005394
AU225   AU        0.465000    0.572143    0.107857     0.007504
PD226   PD        0.465000    0.607857    0.072143     0.005394
AU227   AU        0.500714    0.572143    0.072143     0.007504
AU228   AU        0.500714    0.607857    0.107857     0.007504
AU229   AU        0.536429    0.572143    0.107857     0.007504
AU230   AU        0.536429    0.607857    0.072143     0.007504
AU231   AU        0.572143    0.572143    0.072143     0.007504
AU232   AU        0.572143    0.607857    0.107857     0.007504
PD233   PD        0.607857    0.572143    0.107857     0.005394
AU234   AU        0.607857    0.607857    0.072143     0.007504
PD235   PD        0.643571    0.607857    0.107857     0.005394
AU236   AU        0.679286    0.572143    0.107857     0.007504
PD237   PD        0.250714    0.643571    0.107857     0.005394
AU238   AU        0.286429    0.679286    0.107857     0.007504
AU239   AU        0.322143    0.643571    0.107857     0.007504
AU240   AU        0.357857    0.643571    0.072143     0.007504
AU241   AU        0.357857    0.679286    0.107857     0.007504
PD242   PD        0.393571    0.643571    0.107857     0.005394
PD243   PD        0.393571    0.679286    0.072143     0.005394
PD244   PD        0.429286    0.643571    0.072143     0.005394
AU245   AU        0.429286    0.679286    0.107857     0.007504
PD246   PD        0.465000    0.643571    0.107857     0.005394
AU247   AU        0.465000    0.679286    0.072143     0.007504
AU248   AU        0.500714    0.643571    0.072143     0.007504
AU249   AU        0.500714    0.679286    0.107857     0.007504
AU250   AU        0.536429    0.643571    0.107857     0.007504
PD251   PD        0.572143    0.679286    0.107857     0.005394
AU252   AU        0.607857    0.643571    0.107857     0.007504
PD253   PD        0.393571    0.715000    0.107857     0.005394
PD254   PD        0.465000    0.715000    0.107857     0.005394
AU255   AU        0.286429    0.107857    0.179286     0.007504
AU256   AU        0.357857    0.107857    0.179286     0.007504
AU257   AU        0.393571    0.072143    0.179286     0.007504
AU258   AU        0.393571    0.107857    0.143571     0.007504
PD259   PD        0.429286    0.107857    0.179286     0.005394
PD260   PD        0.465000    0.072143    0.179286     0.005394
PD261   PD        0.465000    0.107857    0.143571     0.005394
AU262   AU        0.500714    0.107857    0.179286     0.007504
PD263   PD        0.572143    0.107857    0.179286     0.005394
PD264   PD        0.215000    0.179286    0.179286     0.005394
PD265   PD        0.250714    0.143571    0.179286     0.005394
PD266   PD        0.250714    0.179286    0.143571     0.005394
PD267   PD        0.286429    0.143571    0.143571     0.005394
PD268   PD        0.286429    0.179286    0.179286     0.005394
AU269   AU        0.322143    0.143571    0.179286     0.007504
AU270   AU        0.322143    0.179286    0.143571     0.007504
PD271   PD        0.357857    0.143571    0.143571     0.005394
AU272   AU        0.357857    0.179286    0.179286     0.007504
AU273   AU        0.393571    0.143571    0.179286     0.007504
AU274   AU        0.393571    0.179286    0.143571     0.007504
AU275   AU        0.429286    0.143571    0.143571     0.007504
AU276   AU        0.429286    0.179286    0.179286     0.007504
PD277   PD        0.465000    0.143571    0.179286     0.005394
AU278   AU        0.465000    0.179286    0.143571     0.007504
PD279   PD        0.500714    0.143571    0.143571     0.005394
AU280   AU        0.500714    0.179286    0.179286     0.007504
PD281   PD        0.536429    0.143571    0.179286     0.005394
PD282   PD        0.536429    0.179286    0.143571     0.005394
AU283   AU        0.572143    0.143571    0.143571     0.007504
PD284   PD        0.572143    0.179286    0.179286     0.005394
AU285   AU        0.607857    0.143571    0.179286     0.007504
AU286   AU        0.607857    0.179286    0.143571     0.007504
AU287   AU        0.643571    0.179286    0.179286     0.007504
PD288   PD        0.143571    0.250714    0.179286     0.005394
AU289   AU        0.179286    0.215000    0.179286     0.007504
AU290   AU        0.179286    0.250714    0.143571     0.007504
AU291   AU        0.215000    0.215000    0.143571     0.007504
PD292   PD        0.215000    0.250714    0.179286     0.005394
AU293   AU        0.250714    0.215000    0.179286     0.007504
AU294   AU        0.250714    0.250714    0.143571     0.007504
AU295   AU        0.286429    0.215000    0.143571     0.007504
AU296   AU        0.286429    0.250714    0.179286     0.007504
AU297   AU        0.322143    0.215000    0.179286     0.007504
AU298   AU        0.322143    0.250714    0.143571     0.007504
PD299   PD        0.357857    0.215000    0.143571     0.005394
AU300   AU        0.357857    0.250714    0.179286     0.007504
AU301   AU        0.393571    0.215000    0.179286     0.007504
PD302   PD        0.393571    0.250714    0.143571     0.005394
AU303   AU        0.429286    0.215000    0.143571     0.007504
PD304   PD        0.429286    0.250714    0.179286     0.005394
PD305   PD        0.465000    0.215000    0.179286     0.005394
PD306   PD        0.465000    0.250714    0.143571     0.005394
AU307   AU        0.500714    0.215000    0.143571     0.007504
PD308   PD        0.500714    0.250714    0.179286     0.005394
PD309   PD        0.536429    0.215000    0.179286     0.005394
PD310   PD        0.536429    0.250714    0.143571     0.005394
AU311   AU        0.572143    0.215000    0.143571     0.007504
PD312   PD        0.572143    0.250714    0.179286     0.005394
PD313   PD        0.607857    0.215000    0.179286     0.005394
AU314   AU        0.607857    0.250714    0.143571     0.007504
AU315   AU        0.643571    0.215000    0.143571     0.007504
AU316   AU        0.643571    0.250714    0.179286     0.007504
AU317   AU        0.679286    0.215000    0.179286     0.007504
AU318   AU        0.679286    0.250714    0.143571     0.007504
AU319   AU        0.715000    0.250714    0.179286     0.007504
AU320   AU        0.107857    0.286429    0.179286     0.007504
AU321   AU        0.143571    0.286429    0.143571     0.007504
PD322   PD        0.143571    0.322143    0.179286     0.005394
AU323   AU        0.179286    0.286429    0.179286     0.007504
PD324   PD        0.179286    0.322143    0.143571     0.005394
PD325   PD        0.215000    0.286429    0.143571     0.005394
AU326   AU        0.215000    0.322143    0.179286     0.007504
AU327   AU        0.250714    0.286429    0.179286     0.007504
AU328   AU        0.250714    0.322143    0.143571     0.007504
AU329   AU        0.286429    0.286429    0.143571     0.007504
PD330   PD        0.286429    0.322143    0.179286     0.005394
PD331   PD        0.322143    0.286429    0.179286     0.005394
PD332   PD        0.322143    0.322143    0.143571     0.005394
AU333   AU        0.357857    0.286429    0.143571     0.007504
PD334   PD        0.357857    0.322143    0.179286     0.005394
PD335   PD        0.393571    0.286429    0.179286     0.005394
PD336   PD        0.393571    0.322143    0.143571     0.005394
AU337   AU        0.429286    0.286429    0.143571     0.007504
PD338   PD        0.429286    0.322143    0.179286     0.005394
PD339   PD        0.465000    0.286429    0.179286     0.005394
AU340   AU        0.465000    0.322143    0.143571     0.007504
AU341   AU        0.500714    0.286429    0.143571     0.007504
AU342   AU        0.500714    0.322143    0.179286     0.007504
AU343   AU        0.536429    0.286429    0.179286     0.007504
AU344   AU        0.536429    0.322143    0.143571     0.007504
AU345   AU        0.572143    0.286429    0.143571     0.007504
PD346   PD        0.572143    0.322143    0.179286     0.005394
PD347   PD        0.607857    0.286429    0.179286     0.005394
PD348   PD        0.607857    0.322143    0.143571     0.005394
PD349   PD        0.643571    0.286429    0.143571     0.005394
PD350   PD        0.643571    0.322143    0.179286     0.005394
AU351   AU        0.679286    0.286429    0.179286     0.007504
PD352   PD        0.679286    0.322143    0.143571     0.005394
PD353   PD        0.715000    0.286429    0.143571     0.005394
PD354   PD        0.715000    0.322143    0.179286     0.005394
PD355   PD        0.750714    0.286429    0.179286     0.005394
AU356   AU        0.072143    0.393571    0.179286     0.007504
AU357   AU        0.107857    0.357857    0.179286     0.007504
PD358   PD        0.107857    0.393571    0.143571     0.005394
AU359   AU        0.143571    0.357857    0.143571     0.007504
PD360   PD        0.143571    0.393571    0.179286     0.005394
AU361   AU        0.179286    0.357857    0.179286     0.007504
AU362   AU        0.179286    0.393571    0.143571     0.007504
PD363   PD        0.215000    0.357857    0.143571     0.005394
AU364   AU        0.215000    0.393571    0.179286     0.007504
AU365   AU        0.250714    0.357857    0.179286     0.007504
PD366   PD        0.250714    0.393571    0.143571     0.005394
PD367   PD        0.286429    0.357857    0.143571     0.005394
AU368   AU        0.286429    0.393571    0.179286     0.007504
PD369   PD        0.322143    0.357857    0.179286     0.005394
PD370   PD        0.322143    0.393571    0.143571     0.005394
AU371   AU        0.357857    0.357857    0.143571     0.007504
AU372   AU        0.357857    0.393571    0.179286     0.007504
AU373   AU        0.393571    0.357857    0.179286     0.007504
AU374   AU        0.393571    0.393571    0.143571     0.007504
AU375   AU        0.429286    0.357857    0.143571     0.007504
PD376   PD        0.429286    0.393571    0.179286     0.005394
PD377   PD        0.465000    0.357857    0.179286     0.005394
PD378   PD        0.465000    0.393571    0.143571     0.005394
PD379   PD        0.500714    0.357857    0.143571     0.005394
PD380   PD        0.500714    0.393571    0.179286     0.005394
PD381   PD        0.536429    0.357857    0.179286     0.005394
PD382   PD        0.536429    0.393571    0.143571     0.005394
PD383   PD        0.572143    0.357857    0.143571     0.005394
AU384   AU        0.572143    0.393571    0.179286     0.007504
PD385   PD        0.607857    0.357857    0.179286     0.005394
PD386   PD        0.607857    0.393571    0.143571     0.005394
PD387   PD        0.643571    0.357857    0.143571     0.005394
AU388   AU        0.643571    0.393571    0.179286     0.007504
AU389   AU        0.679286    0.357857    0.179286     0.007504
AU390   AU        0.679286    0.393571    0.143571     0.007504
AU391   AU        0.715000    0.357857    0.143571     0.007504
PD392   PD        0.715000    0.393571    0.179286     0.005394
PD393   PD        0.750714    0.357857    0.179286     0.005394
PD394   PD        0.750714    0.393571    0.143571     0.005394
AU395   AU        0.786429    0.393571    0.179286     0.007504
PD396   PD        0.072143    0.465000    0.179286     0.005394
AU397   AU        0.107857    0.429286    0.179286     0.007504
AU398   AU        0.107857    0.465000    0.143571     0.007504
AU399   AU        0.143571    0.429286    0.143571     0.007504
PD400   PD        0.143571    0.465000    0.179286     0.005394
AU401   AU        0.179286    0.429286    0.179286     0.007504
PD402   PD        0.179286    0.465000    0.143571     0.005394
AU403   AU        0.215000    0.429286    0.143571     0.007504
AU404   AU        0.215000    0.465000    0.179286     0.007504
PD405   PD        0.250714    0.429286    0.179286     0.005394
AU406   AU        0.250714    0.465000    0.143571     0.007504
AU407   AU        0.286429    0.429286    0.143571     0.007504
PD408   PD        0.286429    0.465000    0.179286     0.005394
PD409   PD        0.322143    0.429286    0.179286     0.005394
AU410   AU        0.322143    0.465000    0.143571     0.007504
PD411   PD        0.357857    0.429286    0.143571     0.005394
PD412   PD        0.357857    0.465000    0.179286     0.005394
PD413   PD        0.393571    0.429286    0.179286     0.005394
PD414   PD        0.393571    0.465000    0.143571     0.005394
AU415   AU        0.429286    0.429286    0.143571     0.007504
AU416   AU        0.429286    0.465000    0.179286     0.007504
AU417   AU        0.465000    0.429286    0.179286     0.007504
AU418   AU        0.465000    0.465000    0.143571     0.007504
PD419   PD        0.500714    0.429286    0.143571     0.005394
PD420   PD        0.500714    0.465000    0.179286     0.005394
AU421   AU        0.536429    0.429286    0.179286     0.007504
AU422   AU        0.536429    0.465000    0.143571     0.007504
PD423   PD        0.572143    0.429286    0.143571     0.005394
PD424   PD        0.572143    0.465000    0.179286     0.005394
PD425   PD        0.607857    0.429286    0.179286     0.005394
PD426   PD        0.607857    0.465000    0.143571     0.005394
AU427   AU        0.643571    0.429286    0.143571     0.007504
AU428   AU        0.643571    0.465000    0.179286     0.007504
AU429   AU        0.679286    0.429286    0.179286     0.007504
PD430   PD        0.679286    0.465000    0.143571     0.005394
AU431   AU        0.715000    0.429286    0.143571     0.007504
PD432   PD        0.715000    0.465000    0.179286     0.005394
PD433   PD        0.750714    0.429286    0.179286     0.005394
AU434   AU        0.750714    0.465000    0.143571     0.007504
PD435   PD        0.786429    0.465000    0.179286     0.005394
AU436   AU        0.107857    0.500714    0.179286     0.007504
AU437   AU        0.143571    0.500714    0.143571     0.007504
PD438   PD        0.143571    0.536429    0.179286     0.005394
PD439   PD        0.179286    0.500714    0.179286     0.005394
PD440   PD        0.179286    0.536429    0.143571     0.005394
AU441   AU        0.215000    0.500714    0.143571     0.007504
AU442   AU        0.215000    0.536429    0.179286     0.007504
PD443   PD        0.250714    0.500714    0.179286     0.005394
AU444   AU        0.250714    0.536429    0.143571     0.007504
PD445   PD        0.286429    0.500714    0.143571     0.005394
PD446   PD        0.286429    0.536429    0.179286     0.005394
PD447   PD        0.322143    0.500714    0.179286     0.005394
PD448   PD        0.322143    0.536429    0.143571     0.005394
PD449   PD        0.357857    0.500714    0.143571     0.005394
AU450   AU        0.357857    0.536429    0.179286     0.007504
PD451   PD        0.393571    0.500714    0.179286     0.005394
PD452   PD        0.393571    0.536429    0.143571     0.005394
AU453   AU        0.429286    0.500714    0.143571     0.007504
AU454   AU        0.429286    0.536429    0.179286     0.007504
AU455   AU        0.465000    0.500714    0.179286     0.007504
AU456   AU        0.465000    0.536429    0.143571     0.007504
AU457   AU        0.500714    0.500714    0.143571     0.007504
AU458   AU        0.500714    0.536429    0.179286     0.007504
PD459   PD        0.536429    0.500714    0.179286     0.005394
PD460   PD        0.536429    0.536429    0.143571     0.005394
PD461   PD        0.572143    0.500714    0.143571     0.005394
PD462   PD        0.572143    0.536429    0.179286     0.005394
AU463   AU        0.607857    0.500714    0.179286     0.007504
PD464   PD        0.607857    0.536429    0.143571     0.005394
AU465   AU        0.643571    0.500714    0.143571     0.007504
AU466   AU        0.643571    0.536429    0.179286     0.007504
PD467   PD        0.679286    0.500714    0.179286     0.005394
PD468   PD        0.679286    0.536429    0.143571     0.005394
PD469   PD        0.715000    0.500714    0.143571     0.005394
AU470   AU        0.715000    0.536429    0.179286     0.007504
AU471   AU        0.750714    0.500714    0.179286     0.007504
PD472   PD        0.107857    0.572143    0.179286     0.005394
PD473   PD        0.143571    0.572143    0.143571     0.005394
PD474   PD        0.143571    0.607857    0.179286     0.005394
AU475   AU        0.179286    0.572143    0.179286     0.007504
AU476   AU        0.179286    0.607857    0.143571     0.007504
PD477   PD        0.215000    0.572143    0.143571     0.005394
AU478   AU        0.215000    0.607857    0.179286     0.007504
AU479   AU        0.250714    0.572143    0.179286     0.007504
AU480   AU        0.250714    0.607857    0.143571     0.007504
AU481   AU        0.286429    0.572143    0.143571     0.007504
AU482   AU        0.286429    0.607857    0.179286     0.007504
PD483   PD        0.322143    0.572143    0.179286     0.005394
AU484   AU        0.322143    0.607857    0.143571     0.007504
PD485   PD        0.357857    0.572143    0.143571     0.005394
AU486   AU        0.357857    0.607857    0.179286     0.007504
PD487   PD        0.393571    0.572143    0.179286     0.005394
AU488   AU        0.393571    0.607857    0.143571     0.007504
AU489   AU        0.429286    0.572143    0.143571     0.007504
PD490   PD        0.429286    0.607857    0.179286     0.005394
PD491   PD        0.465000    0.572143    0.179286     0.005394
AU492   AU        0.465000    0.607857    0.143571     0.007504
PD493   PD        0.500714    0.572143    0.143571     0.005394
AU494   AU        0.500714    0.607857    0.179286     0.007504
AU495   AU        0.536429    0.572143    0.179286     0.007504
PD496   PD        0.536429    0.607857    0.143571     0.005394
PD497   PD        0.572143    0.572143    0.143571     0.005394
PD498   PD        0.572143    0.607857    0.179286     0.005394
PD499   PD        0.607857    0.572143    0.179286     0.005394
PD500   PD        0.607857    0.607857    0.143571     0.005394
AU501   AU        0.643571    0.572143    0.143571     0.007504
PD502   PD        0.643571    0.607857    0.179286     0.005394
PD503   PD        0.679286    0.572143    0.179286     0.005394
PD504   PD        0.679286    0.607857    0.143571     0.005394
AU505   AU        0.715000    0.572143    0.143571     0.007504
AU506   AU        0.715000    0.607857    0.179286     0.007504
PD507   PD        0.750714    0.572143    0.179286     0.005394
PD508   PD        0.179286    0.643571    0.179286     0.005394
AU509   AU        0.215000    0.643571    0.143571     0.007504
PD510   PD        0.215000    0.679286    0.179286     0.005394
PD511   PD        0.250714    0.643571    0.179286     0.005394
AU512   AU        0.250714    0.679286    0.143571     0.007504
AU513   AU        0.286429    0.643571    0.143571     0.007504
AU514   AU        0.286429    0.679286    0.179286     0.007504
PD515   PD        0.322143    0.643571    0.179286     0.005394
AU516   AU        0.322143    0.679286    0.143571     0.007504
PD517   PD        0.357857    0.643571    0.143571     0.005394
PD518   PD        0.357857    0.679286    0.179286     0.005394
PD519   PD        0.393571    0.643571    0.179286     0.005394
AU520   AU        0.393571    0.679286    0.143571     0.007504
PD521   PD        0.429286    0.643571    0.143571     0.005394
AU522   AU        0.429286    0.679286    0.179286     0.007504
PD523   PD        0.465000    0.643571    0.179286     0.005394
AU524   AU        0.465000    0.679286    0.143571     0.007504
PD525   PD        0.500714    0.643571    0.143571     0.005394
AU526   AU        0.500714    0.679286    0.179286     0.007504
AU527   AU        0.536429    0.643571    0.179286     0.007504
PD528   PD        0.536429    0.679286    0.143571     0.005394
AU529   AU        0.572143    0.643571    0.143571     0.007504
PD530   PD        0.572143    0.679286    0.179286     0.005394
PD531   PD        0.607857    0.643571    0.179286     0.005394
AU532   AU        0.607857    0.679286    0.143571     0.007504
AU533   AU        0.643571    0.643571    0.143571     0.007504
AU534   AU        0.643571    0.679286    0.179286     0.007504
AU535   AU        0.679286    0.643571    0.179286     0.007504
AU536   AU        0.250714    0.715000    0.179286     0.007504
AU537   AU        0.286429    0.715000    0.143571     0.007504
AU538   AU        0.286429    0.750714    0.179286     0.007504
AU539   AU        0.322143    0.715000    0.179286     0.007504
PD540   PD        0.357857    0.715000    0.143571     0.005394
PD541   PD        0.357857    0.750714    0.179286     0.005394
AU542   AU        0.393571    0.715000    0.179286     0.007504
PD543   PD        0.393571    0.750714    0.143571     0.005394
PD544   PD        0.429286    0.715000    0.143571     0.005394
PD545   PD        0.429286    0.750714    0.179286     0.005394
AU546   AU        0.465000    0.715000    0.179286     0.007504
PD547   PD        0.465000    0.750714    0.143571     0.005394
PD548   PD        0.500714    0.715000    0.143571     0.005394
PD549   PD        0.500714    0.750714    0.179286     0.005394
AU550   AU        0.536429    0.715000    0.179286     0.007504
PD551   PD        0.572143    0.715000    0.143571     0.005394
PD552   PD        0.572143    0.750714    0.179286     0.005394
PD553   PD        0.607857    0.715000    0.179286     0.005394
PD554   PD        0.393571    0.786429    0.179286     0.005394
AU555   AU        0.465000    0.786429    0.179286     0.007504
AU556   AU        0.357857    0.036429    0.250714     0.007504
AU557   AU        0.429286    0.036429    0.250714     0.007504
AU558   AU        0.500714    0.036429    0.250714     0.007504
PD559   PD        0.215000    0.107857    0.250714     0.005394
AU560   AU        0.250714    0.072143    0.250714     0.007504
AU561   AU        0.250714    0.107857    0.215000     0.007504
PD562   PD        0.286429    0.107857    0.250714     0.005394
AU563   AU        0.322143    0.072143    0.250714     0.007504
AU564   AU        0.322143    0.107857    0.215000     0.007504
PD565   PD        0.357857    0.072143    0.215000     0.005394
PD566   PD        0.357857    0.107857    0.250714     0.005394
AU567   AU        0.393571    0.072143    0.250714     0.007504
PD568   PD        0.393571    0.107857    0.215000     0.005394
AU569   AU        0.429286    0.072143    0.215000     0.007504
AU570   AU        0.429286    0.107857    0.250714     0.007504
PD571   PD        0.465000    0.072143    0.250714     0.005394
PD572   PD        0.465000    0.107857    0.215000     0.005394
PD573   PD        0.500714    0.072143    0.215000     0.005394
AU574   AU        0.500714    0.107857    0.250714     0.007504
AU575   AU        0.536429    0.072143    0.250714     0.007504
PD576   PD        0.536429    0.107857    0.215000     0.005394
AU577   AU        0.572143    0.107857    0.250714     0.007504
AU578   AU        0.607857    0.072143    0.250714     0.007504
AU579   AU        0.607857    0.107857    0.215000     0.007504
PD580   PD        0.643571    0.107857    0.250714     0.005394
PD581   PD        0.143571    0.179286    0.250714     0.005394
PD582   PD        0.179286    0.143571    0.250714     0.005394
AU583   AU        0.179286    0.179286    0.215000     0.007504
AU584   AU        0.215000    0.143571    0.215000     0.007504
PD585   PD        0.215000    0.179286    0.250714     0.005394
PD586   PD        0.250714    0.143571    0.250714     0.005394
AU587   AU        0.250714    0.179286    0.215000     0.007504
PD588   PD        0.286429    0.143571    0.215000     0.005394
PD589   PD        0.286429    0.179286    0.250714     0.005394
AU590   AU        0.322143    0.143571    0.250714     0.007504
AU591   AU        0.322143    0.179286    0.215000     0.007504
AU592   AU        0.357857    0.143571    0.215000     0.007504
AU593   AU        0.357857    0.179286    0.250714     0.007504
AU594   AU        0.393571    0.143571    0.250714     0.007504
PD595   PD        0.393571    0.179286    0.215000     0.005394
PD596   PD        0.429286    0.143571    0.215000     0.005394
PD597   PD        0.429286    0.179286    0.250714     0.005394
PD598   PD        0.465000    0.143571    0.250714     0.005394
PD599   PD        0.465000    0.179286    0.215000     0.005394
PD600   PD        0.500714    0.143571    0.215000     0.005394
AU601   AU        0.500714    0.179286    0.250714     0.007504
PD602   PD        0.536429    0.143571    0.250714     0.005394
AU603   AU        0.536429    0.179286    0.215000     0.007504
PD604   PD        0.572143    0.143571    0.215000     0.005394
AU605   AU        0.572143    0.179286    0.250714     0.007504
PD606   PD        0.607857    0.143571    0.250714     0.005394
AU607   AU        0.607857    0.179286    0.215000     0.007504
PD608   PD        0.643571    0.143571    0.215000     0.005394
AU609   AU        0.643571    0.179286    0.250714     0.007504
AU610   AU        0.679286    0.143571    0.250714     0.007504
PD611   PD        0.679286    0.179286    0.215000     0.005394
AU612   AU        0.715000    0.179286    0.250714     0.007504
PD613   PD        0.072143    0.250714    0.250714     0.005394
AU614   AU        0.107857    0.215000    0.250714     0.007504
AU615   AU        0.107857    0.250714    0.215000     0.007504
AU616   AU        0.143571    0.215000    0.215000     0.007504
PD617   PD        0.143571    0.250714    0.250714     0.005394
PD618   PD        0.179286    0.215000    0.250714     0.005394
AU619   AU        0.179286    0.250714    0.215000     0.007504
PD620   PD        0.215000    0.215000    0.215000     0.005394
AU621   AU        0.215000    0.250714    0.250714     0.007504
AU622   AU        0.250714    0.215000    0.250714     0.007504
AU623   AU        0.250714    0.250714    0.215000     0.007504
PD624   PD        0.286429    0.215000    0.215000     0.005394
AU625   AU        0.286429    0.250714    0.250714     0.007504
PD626   PD        0.322143    0.215000    0.250714     0.005394
AU627   AU        0.322143    0.250714    0.215000     0.007504
PD628   PD        0.357857    0.215000    0.215000     0.005394
AU629   AU        0.357857    0.250714    0.250714     0.007504
AU630   AU        0.393571    0.215000    0.250714     0.007504
PD631   PD        0.393571    0.250714    0.215000     0.005394
AU632   AU        0.429286    0.215000    0.215000     0.007504
PD633   PD        0.429286    0.250714    0.250714     0.005394
AU634   AU        0.465000    0.215000    0.250714     0.007504
PD635   PD        0.465000    0.250714    0.215000     0.005394
AU636   AU        0.500714    0.215000    0.215000     0.007504
AU637   AU        0.500714    0.250714    0.250714     0.007504
PD638   PD        0.536429    0.215000    0.250714     0.005394
AU639   AU        0.536429    0.250714    0.215000     0.007504
PD640   PD        0.572143    0.215000    0.215000     0.005394
PD641   PD        0.572143    0.250714    0.250714     0.005394
PD642   PD        0.607857    0.215000    0.250714     0.005394
AU643   AU        0.607857    0.250714    0.215000     0.007504
PD644   PD        0.643571    0.215000    0.215000     0.005394
PD645   PD        0.643571    0.250714    0.250714     0.005394
PD646   PD        0.679286    0.215000    0.250714     0.005394
AU647   AU        0.679286    0.250714    0.215000     0.007504
PD648   PD        0.715000    0.215000    0.215000     0.005394
AU649   AU        0.715000    0.250714    0.250714     0.007504
AU650   AU        0.750714    0.215000    0.250714     0.007504
AU651   AU        0.750714    0.250714    0.215000     0.007504
AU652   AU        0.786429    0.250714    0.250714     0.007504
PD653   PD        0.072143    0.322143    0.250714     0.005394
AU654   AU        0.107857    0.286429    0.250714     0.007504
PD655   PD        0.107857    0.322143    0.215000     0.005394
PD656   PD        0.143571    0.286429    0.215000     0.005394
PD657   PD        0.143571    0.322143    0.250714     0.005394
AU658   AU        0.179286    0.286429    0.250714     0.007504
PD659   PD        0.179286    0.322143    0.215000     0.005394
PD660   PD        0.215000    0.286429    0.215000     0.005394
PD661   PD        0.215000    0.322143    0.250714     0.005394
PD662   PD        0.250714    0.286429    0.250714     0.005394
AU663   AU        0.250714    0.322143    0.215000     0.007504
AU664   AU        0.286429    0.286429    0.215000     0.007504
PD665   PD        0.286429    0.322143    0.250714     0.005394
AU666   AU        0.322143    0.286429    0.250714     0.007504
AU667   AU        0.322143    0.322143    0.215000     0.007504
PD668   PD        0.357857    0.286429    0.215000     0.005394
AU669   AU        0.357857    0.322143    0.250714     0.007504
PD670   PD        0.393571    0.286429    0.250714     0.005394
AU671   AU        0.393571    0.322143    0.215000     0.007504
AU672   AU        0.429286    0.286429    0.215000     0.007504
PD673   PD        0.429286    0.322143    0.250714     0.005394
AU674   AU        0.465000    0.286429    0.250714     0.007504
AU675   AU        0.465000    0.322143    0.215000     0.007504
PD676   PD        0.500714    0.286429    0.215000     0.005394
PD677   PD        0.500714    0.322143    0.250714     0.005394
AU678   AU        0.536429    0.286429    0.250714     0.007504
AU679   AU        0.536429    0.322143    0.215000     0.007504
PD680   PD        0.572143    0.286429    0.215000     0.005394
PD681   PD        0.572143    0.322143    0.250714     0.005394
PD682   PD        0.607857    0.286429    0.250714     0.005394
AU683   AU        0.607857    0.322143    0.215000     0.007504
AU684   AU        0.643571    0.286429    0.215000     0.007504
PD685   PD        0.643571    0.322143    0.250714     0.005394
AU686   AU        0.679286    0.286429    0.250714     0.007504
PD687   PD        0.679286    0.322143    0.215000     0.005394
AU688   AU        0.715000    0.286429    0.215000     0.007504
PD689   PD        0.715000    0.322143    0.250714     0.005394
PD690   PD        0.750714    0.286429    0.250714     0.005394
AU691   AU        0.750714    0.322143    0.215000     0.007504
PD692   PD        0.786429    0.322143    0.250714     0.005394
AU693   AU        0.036429    0.357857    0.250714     0.007504
AU694   AU        0.072143    0.357857    0.215000     0.007504
PD695   PD        0.072143    0.393571    0.250714     0.005394
PD696   PD        0.107857    0.357857    0.250714     0.005394
AU697   AU        0.107857    0.393571    0.215000     0.007504
AU698   AU        0.143571    0.357857    0.215000     0.007504
AU699   AU        0.143571    0.393571    0.250714     0.007504
PD700   PD        0.179286    0.357857    0.250714     0.005394
PD701   PD        0.179286    0.393571    0.215000     0.005394
AU702   AU        0.215000    0.357857    0.215000     0.007504
AU703   AU        0.215000    0.393571    0.250714     0.007504
AU704   AU        0.250714    0.357857    0.250714     0.007504
PD705   PD        0.250714    0.393571    0.215000     0.005394
AU706   AU        0.286429    0.357857    0.215000     0.007504
PD707   PD        0.286429    0.393571    0.250714     0.005394
PD708   PD        0.322143    0.357857    0.250714     0.005394
PD709   PD        0.322143    0.393571    0.215000     0.005394
AU710   AU        0.357857    0.357857    0.215000     0.007504
PD711   PD        0.357857    0.393571    0.250714     0.005394
AU712   AU        0.393571    0.357857    0.250714     0.007504
PD713   PD        0.393571    0.393571    0.215000     0.005394
PD714   PD        0.429286    0.357857    0.215000     0.005394
AU715   AU        0.429286    0.393571    0.250714     0.007504
AU716   AU        0.465000    0.357857    0.250714     0.007504
PD717   PD        0.465000    0.393571    0.215000     0.005394
AU718   AU        0.500714    0.357857    0.215000     0.007504
AU719   AU        0.500714    0.393571    0.250714     0.007504
AU720   AU        0.536429    0.357857    0.250714     0.007504
PD721   PD        0.536429    0.393571    0.215000     0.005394
PD722   PD        0.572143    0.357857    0.215000     0.005394
PD723   PD        0.572143    0.393571    0.250714     0.005394
PD724   PD        0.607857    0.357857    0.250714     0.005394
PD725   PD        0.607857    0.393571    0.215000     0.005394
PD726   PD        0.643571    0.357857    0.215000     0.005394
AU727   AU        0.643571    0.393571    0.250714     0.007504
AU728   AU        0.679286    0.357857    0.250714     0.007504
AU729   AU        0.679286    0.393571    0.215000     0.007504
PD730   PD        0.715000    0.357857    0.215000     0.005394
AU731   AU        0.715000    0.393571    0.250714     0.007504
PD732   PD        0.750714    0.357857    0.250714     0.005394
PD733   PD        0.750714    0.393571    0.215000     0.005394
PD734   PD        0.786429    0.357857    0.215000     0.005394
PD735   PD        0.786429    0.393571    0.250714     0.005394
AU736   AU        0.822143    0.357857    0.250714     0.007504
AU737   AU        0.036429    0.429286    0.250714     0.007504
AU738   AU        0.072143    0.429286    0.215000     0.007504
AU739   AU        0.072143    0.465000    0.250714     0.007504
PD740   PD        0.107857    0.429286    0.250714     0.005394
PD741   PD        0.107857    0.465000    0.215000     0.005394
PD742   PD        0.143571    0.429286    0.215000     0.005394
AU743   AU        0.143571    0.465000    0.250714     0.007504
PD744   PD        0.179286    0.429286    0.250714     0.005394
PD745   PD        0.179286    0.465000    0.215000     0.005394
AU746   AU        0.215000    0.429286    0.215000     0.007504
PD747   PD        0.215000    0.465000    0.250714     0.005394
AU748   AU        0.250714    0.429286    0.250714     0.007504
AU749   AU        0.250714    0.465000    0.215000     0.007504
PD750   PD        0.286429    0.429286    0.215000     0.005394
AU751   AU        0.286429    0.465000    0.250714     0.007504
PD752   PD        0.322143    0.429286    0.250714     0.005394
PD753   PD        0.322143    0.465000    0.215000     0.005394
PD754   PD        0.357857    0.429286    0.215000     0.005394
PD755   PD        0.357857    0.465000    0.250714     0.005394
AU756   AU        0.393571    0.429286    0.250714     0.007504
AU757   AU        0.393571    0.465000    0.215000     0.007504
PD758   PD        0.429286    0.429286    0.215000     0.005394
PD759   PD        0.429286    0.465000    0.250714     0.005394
PD760   PD        0.465000    0.429286    0.250714     0.005394
AU761   AU        0.465000    0.465000    0.215000     0.007504
AU762   AU        0.500714    0.429286    0.215000     0.007504
PD763   PD        0.500714    0.465000    0.250714     0.005394
AU764   AU        0.536429    0.429286    0.250714     0.007504
PD765   PD        0.536429    0.465000    0.215000     0.005394
AU766   AU        0.572143    0.429286    0.215000     0.007504
PD767   PD        0.572143    0.465000    0.250714     0.005394
AU768   AU        0.607857    0.429286    0.250714     0.007504
AU769   AU        0.607857    0.465000    0.215000     0.007504
AU770   AU        0.643571    0.429286    0.215000     0.007504
AU771   AU        0.643571    0.465000    0.250714     0.007504
PD772   PD        0.679286    0.429286    0.250714     0.005394
PD773   PD        0.679286    0.465000    0.215000     0.005394
AU774   AU        0.715000    0.429286    0.215000     0.007504
AU775   AU        0.715000    0.465000    0.250714     0.007504
PD776   PD        0.750714    0.429286    0.250714     0.005394
AU777   AU        0.750714    0.465000    0.215000     0.007504
PD778   PD        0.786429    0.429286    0.215000     0.005394
AU779   AU        0.786429    0.465000    0.250714     0.007504
PD780   PD        0.822143    0.429286    0.250714     0.005394
AU781   AU        0.036429    0.500714    0.250714     0.007504
AU782   AU        0.072143    0.500714    0.215000     0.007504
AU783   AU        0.072143    0.536429    0.250714     0.007504
AU784   AU        0.107857    0.500714    0.250714     0.007504
PD785   PD        0.107857    0.536429    0.215000     0.005394
AU786   AU        0.143571    0.500714    0.215000     0.007504
AU787   AU        0.143571    0.536429    0.250714     0.007504
PD788   PD        0.179286    0.500714    0.250714     0.005394
AU789   AU        0.179286    0.536429    0.215000     0.007504
AU790   AU        0.215000    0.500714    0.215000     0.007504
PD791   PD        0.215000    0.536429    0.250714     0.005394
PD792   PD        0.250714    0.500714    0.250714     0.005394
AU793   AU        0.250714    0.536429    0.215000     0.007504
PD794   PD        0.286429    0.500714    0.215000     0.005394
AU795   AU        0.286429    0.536429    0.250714     0.007504
AU796   AU        0.322143    0.500714    0.250714     0.007504
AU797   AU        0.322143    0.536429    0.215000     0.007504
PD798   PD        0.357857    0.500714    0.215000     0.005394
PD799   PD        0.357857    0.536429    0.250714     0.005394
AU800   AU        0.393571    0.500714    0.250714     0.007504
PD801   PD        0.393571    0.536429    0.215000     0.005394
AU802   AU        0.429286    0.500714    0.215000     0.007504
PD803   PD        0.429286    0.536429    0.250714     0.005394
PD804   PD        0.465000    0.500714    0.250714     0.005394
PD805   PD        0.465000    0.536429    0.215000     0.005394
AU806   AU        0.500714    0.500714    0.215000     0.007504
PD807   PD        0.500714    0.536429    0.250714     0.005394
PD808   PD        0.536429    0.500714    0.250714     0.005394
PD809   PD        0.536429    0.536429    0.215000     0.005394
AU810   AU        0.572143    0.500714    0.215000     0.007504
AU811   AU        0.572143    0.536429    0.250714     0.007504
PD812   PD        0.607857    0.500714    0.250714     0.005394
PD813   PD        0.607857    0.536429    0.215000     0.005394
AU814   AU        0.643571    0.500714    0.215000     0.007504
AU815   AU        0.643571    0.536429    0.250714     0.007504
AU816   AU        0.679286    0.500714    0.250714     0.007504
PD817   PD        0.679286    0.536429    0.215000     0.005394
PD818   PD        0.715000    0.500714    0.215000     0.005394
PD819   PD        0.715000    0.536429    0.250714     0.005394
AU820   AU        0.750714    0.500714    0.250714     0.007504
AU821   AU        0.750714    0.536429    0.215000     0.007504
AU822   AU        0.786429    0.500714    0.215000     0.007504
PD823   PD        0.786429    0.536429    0.250714     0.005394
PD824   PD        0.822143    0.500714    0.250714     0.005394
PD825   PD        0.072143    0.607857    0.250714     0.005394
PD826   PD        0.107857    0.572143    0.250714     0.005394
PD827   PD        0.107857    0.607857    0.215000     0.005394
PD828   PD        0.143571    0.572143    0.215000     0.005394
AU829   AU        0.143571    0.607857    0.250714     0.007504
PD830   PD        0.179286    0.572143    0.250714     0.005394
PD831   PD        0.179286    0.607857    0.215000     0.005394
PD832   PD        0.215000    0.572143    0.215000     0.005394
PD833   PD        0.215000    0.607857    0.250714     0.005394
PD834   PD        0.250714    0.572143    0.250714     0.005394
AU835   AU        0.250714    0.607857    0.215000     0.007504
AU836   AU        0.286429    0.572143    0.215000     0.007504
PD837   PD        0.286429    0.607857    0.250714     0.005394
PD838   PD        0.322143    0.572143    0.250714     0.005394
AU839   AU        0.322143    0.607857    0.215000     0.007504
AU840   AU        0.357857    0.572143    0.215000     0.007504
AU841   AU        0.357857    0.607857    0.250714     0.007504
AU842   AU        0.393571    0.572143    0.250714     0.007504
PD843   PD        0.393571    0.607857    0.215000     0.005394
AU844   AU        0.429286    0.572143    0.215000     0.007504
PD845   PD        0.429286    0.607857    0.250714     0.005394
PD846   PD        0.465000    0.572143    0.250714     0.005394
PD847   PD        0.465000    0.607857    0.215000     0.005394
AU848   AU        0.500714    0.572143    0.215000     0.007504
AU849   AU        0.500714    0.607857    0.250714     0.007504
AU850   AU        0.536429    0.572143    0.250714     0.007504
AU851   AU        0.536429    0.607857    0.215000     0.007504
AU852   AU        0.572143    0.572143    0.215000     0.007504
PD853   PD        0.572143    0.607857    0.250714     0.005394
AU854   AU        0.607857    0.572143    0.250714     0.007504
AU855   AU        0.607857    0.607857    0.215000     0.007504
AU856   AU        0.643571    0.572143    0.215000     0.007504
PD857   PD        0.643571    0.607857    0.250714     0.005394
PD858   PD        0.679286    0.572143    0.250714     0.005394
PD859   PD        0.679286    0.607857    0.215000     0.005394
AU860   AU        0.715000    0.572143    0.215000     0.007504
AU861   AU        0.715000    0.607857    0.250714     0.007504
AU862   AU        0.750714    0.572143    0.250714     0.007504
PD863   PD        0.750714    0.607857    0.215000     0.005394
AU864   AU        0.786429    0.607857    0.250714     0.007504
AU865   AU        0.107857    0.643571    0.250714     0.007504
AU866   AU        0.143571    0.643571    0.215000     0.007504
PD867   PD        0.143571    0.679286    0.250714     0.005394
AU868   AU        0.179286    0.643571    0.250714     0.007504
PD869   PD        0.179286    0.679286    0.215000     0.005394
AU870   AU        0.215000    0.643571    0.215000     0.007504
AU871   AU        0.215000    0.679286    0.250714     0.007504
PD872   PD        0.250714    0.643571    0.250714     0.005394
AU873   AU        0.250714    0.679286    0.215000     0.007504
AU874   AU        0.286429    0.643571    0.215000     0.007504
PD875   PD        0.286429    0.679286    0.250714     0.005394
PD876   PD        0.322143    0.643571    0.250714     0.005394
AU877   AU        0.322143    0.679286    0.215000     0.007504
PD878   PD        0.357857    0.643571    0.215000     0.005394
AU879   AU        0.357857    0.679286    0.250714     0.007504
PD880   PD        0.393571    0.643571    0.250714     0.005394
AU881   AU        0.393571    0.679286    0.215000     0.007504
PD882   PD        0.429286    0.643571    0.215000     0.005394
AU883   AU        0.429286    0.679286    0.250714     0.007504
PD884   PD        0.465000    0.643571    0.250714     0.005394
AU885   AU        0.465000    0.679286    0.215000     0.007504
PD886   PD        0.500714    0.643571    0.215000     0.005394
AU887   AU        0.500714    0.679286    0.250714     0.007504
AU888   AU        0.536429    0.643571    0.250714     0.007504
AU889   AU        0.536429    0.679286    0.215000     0.007504
PD890   PD        0.572143    0.643571    0.215000     0.005394
PD891   PD        0.572143    0.679286    0.250714     0.005394
AU892   AU        0.607857    0.643571    0.250714     0.007504
AU893   AU        0.607857    0.679286    0.215000     0.007504
AU894   AU        0.643571    0.643571    0.215000     0.007504
AU895   AU        0.643571    0.679286    0.250714     0.007504
PD896   PD        0.679286    0.643571    0.250714     0.005394
PD897   PD        0.679286    0.679286    0.215000     0.005394
PD898   PD        0.715000    0.643571    0.215000     0.005394
PD899   PD        0.715000    0.679286    0.250714     0.005394
PD900   PD        0.750714    0.643571    0.250714     0.005394
AU901   AU        0.179286    0.715000    0.250714     0.007504
PD902   PD        0.215000    0.715000    0.215000     0.005394
PD903   PD        0.215000    0.750714    0.250714     0.005394
PD904   PD        0.250714    0.715000    0.250714     0.005394
PD905   PD        0.250714    0.750714    0.215000     0.005394
AU906   AU        0.286429    0.715000    0.215000     0.007504
AU907   AU        0.286429    0.750714    0.250714     0.007504
PD908   PD        0.322143    0.715000    0.250714     0.005394
PD909   PD        0.322143    0.750714    0.215000     0.005394
AU910   AU        0.357857    0.715000    0.215000     0.007504
PD911   PD        0.357857    0.750714    0.250714     0.005394
AU912   AU        0.393571    0.715000    0.250714     0.007504
AU913   AU        0.393571    0.750714    0.215000     0.007504
AU914   AU        0.429286    0.715000    0.215000     0.007504
AU915   AU        0.429286    0.750714    0.250714     0.007504
AU916   AU        0.465000    0.715000    0.250714     0.007504
AU917   AU        0.465000    0.750714    0.215000     0.007504
AU918   AU        0.500714    0.715000    0.215000     0.007504
AU919   AU        0.500714    0.750714    0.250714     0.007504
AU920   AU        0.536429    0.715000    0.250714     0.007504
AU921   AU        0.536429    0.750714    0.215000     0.007504
AU922   AU        0.572143    0.715000    0.215000     0.007504
AU923   AU        0.572143    0.750714    0.250714     0.007504
AU924   AU        0.607857    0.715000    0.250714     0.007504
PD925   PD        0.607857    0.750714    0.215000     0.005394
AU926   AU        0.643571    0.715000    0.215000     0.007504
AU927   AU        0.643571    0.750714    0.250714     0.007504
PD928   PD        0.679286    0.715000    0.250714     0.005394
AU929   AU        0.250714    0.786429    0.250714     0.007504
AU930   AU        0.322143    0.786429    0.250714     0.007504
PD931   PD        0.357857    0.786429    0.215000     0.005394
PD932   PD        0.357857    0.822143    0.250714     0.005394
PD933   PD        0.393571    0.786429    0.250714     0.005394
PD934   PD        0.429286    0.786429    0.215000     0.005394
AU935   AU        0.429286    0.822143    0.250714     0.007504
PD936   PD        0.465000    0.786429    0.250714     0.005394
PD937   PD        0.500714    0.786429    0.215000     0.005394
PD938   PD        0.500714    0.822143    0.250714     0.005394
PD939   PD        0.536429    0.786429    0.250714     0.005394
AU940   AU        0.607857    0.786429    0.250714     0.007504
AU941   AU        0.286429    0.036429    0.322143     0.007504
PD942   PD        0.322143    0.036429    0.286429     0.005394
AU943   AU        0.357857    0.036429    0.322143     0.007504
AU944   AU        0.393571    0.036429    0.286429     0.007504
AU945   AU        0.429286    0.036429    0.322143     0.007504
PD946   PD        0.465000    0.036429    0.286429     0.005394
PD947   PD        0.500714    0.036429    0.322143     0.005394
PD948   PD        0.536429    0.036429    0.286429     0.005394
PD949   PD        0.572143    0.036429    0.322143     0.005394
PD950   PD        0.179286    0.107857    0.286429     0.005394
AU951   AU        0.215000    0.107857    0.322143     0.007504
PD952   PD        0.250714    0.072143    0.322143     0.005394
PD953   PD        0.250714    0.107857    0.286429     0.005394
PD954   PD        0.286429    0.072143    0.286429     0.005394
AU955   AU        0.286429    0.107857    0.322143     0.007504
PD956   PD        0.322143    0.072143    0.322143     0.005394
PD957   PD        0.322143    0.107857    0.286429     0.005394
AU958   AU        0.357857    0.072143    0.286429     0.007504
AU959   AU        0.357857    0.107857    0.322143     0.007504
AU960   AU        0.393571    0.072143    0.322143     0.007504
PD961   PD        0.393571    0.107857    0.286429     0.005394
AU962   AU        0.429286    0.072143    0.286429     0.007504
AU963   AU        0.429286    0.107857    0.322143     0.007504
PD964   PD        0.465000    0.072143    0.322143     0.005394
AU965   AU        0.465000    0.107857    0.286429     0.007504
AU966   AU        0.500714    0.072143    0.286429     0.007504
AU967   AU        0.500714    0.107857    0.322143     0.007504
AU968   AU        0.536429    0.072143    0.322143     0.007504
PD969   PD        0.536429    0.107857    0.286429     0.005394
AU970   AU        0.572143    0.072143    0.286429     0.007504
AU971   AU        0.572143    0.107857    0.322143     0.007504
PD972   PD        0.607857    0.072143    0.322143     0.005394
PD973   PD        0.607857    0.107857    0.286429     0.005394
PD974   PD        0.643571    0.107857    0.322143     0.005394
AU975   AU        0.679286    0.107857    0.286429     0.007504
PD976   PD        0.107857    0.179286    0.286429     0.005394
AU977   AU        0.143571    0.143571    0.286429     0.007504
PD978   PD        0.143571    0.179286    0.322143     0.005394
AU979   AU        0.179286    0.143571    0.322143     0.007504
AU980   AU        0.179286    0.179286    0.286429     0.007504
AU981   AU        0.215000    0.143571    0.286429     0.007504
PD982   PD        0.215000    0.179286    0.322143     0.005394
AU983   AU        0.250714    0.143571    0.322143     0.007504
PD984   PD        0.250714    0.179286    0.286429     0.005394
AU985   AU        0.286429    0.143571    0.286429     0.007504
AU986   AU        0.286429    0.179286    0.322143     0.007504
PD987   PD        0.322143    0.143571    0.322143     0.005394
PD988   PD        0.322143    0.179286    0.286429     0.005394
AU989   AU        0.357857    0.143571    0.286429     0.007504
AU990   AU        0.357857    0.179286    0.322143     0.007504
PD991   PD        0.393571    0.143571    0.322143     0.005394
PD992   PD        0.393571    0.179286    0.286429     0.005394
AU993   AU        0.429286    0.143571    0.286429     0.007504
PD994   PD        0.429286    0.179286    0.322143     0.005394
AU995   AU        0.465000    0.143571    0.322143     0.007504
PD996   PD        0.465000    0.179286    0.286429     0.005394
PD997   PD        0.500714    0.143571    0.286429     0.005394
PD998   PD        0.500714    0.179286    0.322143     0.005394
AU999   AU        0.536429    0.143571    0.322143     0.007504
AU1000   AU        0.536429    0.179286    0.286429     0.007504
AU1001   AU        0.572143    0.143571    0.286429     0.007504
AU1002   AU        0.572143    0.179286    0.322143     0.007504
AU1003   AU        0.607857    0.143571    0.322143     0.007504
PD1004   PD        0.607857    0.179286    0.286429     0.005394
PD1005   PD        0.643571    0.143571    0.286429     0.005394
PD1006   PD        0.643571    0.179286    0.322143     0.005394
PD1007   PD        0.679286    0.143571    0.322143     0.005394
PD1008   PD        0.679286    0.179286    0.286429     0.005394
AU1009   AU        0.715000    0.143571    0.286429     0.007504
AU1010   AU        0.715000    0.179286    0.322143     0.007504
PD1011   PD        0.750714    0.179286    0.286429     0.005394
PD1012   PD        0.072143    0.250714    0.322143     0.005394
PD1013   PD        0.107857    0.215000    0.322143     0.005394
PD1014   PD        0.107857    0.250714    0.286429     0.005394
PD1015   PD        0.143571    0.215000    0.286429     0.005394
PD1016   PD        0.143571    0.250714    0.322143     0.005394
AU1017   AU        0.179286    0.215000    0.322143     0.007504
AU1018   AU        0.179286    0.250714    0.286429     0.007504
PD1019   PD        0.215000    0.215000    0.286429     0.005394
AU1020   AU        0.215000    0.250714    0.322143     0.007504
PD1021   PD        0.250714    0.215000    0.322143     0.005394
PD1022   PD        0.250714    0.250714    0.286429     0.005394
AU1023   AU        0.286429    0.215000    0.286429     0.007504
AU1024   AU        0.286429    0.250714    0.322143     0.007504
AU1025   AU        0.322143    0.215000    0.322143     0.007504
PD1026   PD        0.322143    0.250714    0.286429     0.005394
AU1027   AU        0.357857    0.215000    0.286429     0.007504
PD1028   PD        0.357857    0.250714    0.322143     0.005394
AU1029   AU        0.393571    0.215000    0.322143     0.007504
PD1030   PD        0.393571    0.250714    0.286429     0.005394
PD1031   PD        0.429286    0.215000    0.286429     0.005394
AU1032   AU        0.429286    0.250714    0.322143     0.007504
AU1033   AU        0.465000    0.215000    0.322143     0.007504
PD1034   PD        0.465000    0.250714    0.286429     0.005394
AU1035   AU        0.500714    0.215000    0.286429     0.007504
PD1036   PD        0.500714    0.250714    0.322143     0.005394
PD1037   PD        0.536429    0.215000    0.322143     0.005394
PD1038   PD        0.536429    0.250714    0.286429     0.005394
AU1039   AU        0.572143    0.215000    0.286429     0.007504
AU1040   AU        0.572143    0.250714    0.322143     0.007504
PD1041   PD        0.607857    0.215000    0.322143     0.005394
AU1042   AU        0.607857    0.250714    0.286429     0.007504
AU1043   AU        0.643571    0.215000    0.286429     0.007504
PD1044   PD        0.643571    0.250714    0.322143     0.005394
PD1045   PD        0.679286    0.215000    0.322143     0.005394
AU1046   AU        0.679286    0.250714    0.286429     0.007504
PD1047   PD        0.715000    0.215000    0.286429     0.005394
AU1048   AU        0.715000    0.250714    0.322143     0.007504
PD1049   PD        0.750714    0.215000    0.322143     0.005394
PD1050   PD        0.750714    0.250714    0.286429     0.005394
PD1051   PD        0.786429    0.250714    0.322143     0.005394
AU1052   AU        0.036429    0.286429    0.322143     0.007504
AU1053   AU        0.036429    0.322143    0.286429     0.007504
AU1054   AU        0.072143    0.286429    0.286429     0.007504
AU1055   AU        0.072143    0.322143    0.322143     0.007504
PD1056   PD        0.107857    0.286429    0.322143     0.005394
PD1057   PD        0.107857    0.322143    0.286429     0.005394
PD1058   PD        0.143571    0.286429    0.286429     0.005394
PD1059   PD        0.143571    0.322143    0.322143     0.005394
PD1060   PD        0.179286    0.286429    0.322143     0.005394
PD1061   PD        0.179286    0.322143    0.286429     0.005394
AU1062   AU        0.215000    0.286429    0.286429     0.007504
AU1063   AU        0.215000    0.322143    0.322143     0.007504
PD1064   PD        0.250714    0.286429    0.322143     0.005394
AU1065   AU        0.250714    0.322143    0.286429     0.007504
AU1066   AU        0.286429    0.286429    0.286429     0.007504
AU1067   AU        0.286429    0.322143    0.322143     0.007504
AU1068   AU        0.322143    0.286429    0.322143     0.007504
PD1069   PD        0.322143    0.322143    0.286429     0.005394
AU1070   AU        0.357857    0.286429    0.286429     0.007504
PD1071   PD        0.357857    0.322143    0.322143     0.005394
AU1072   AU        0.393571    0.286429    0.322143     0.007504
AU1073   AU        0.393571    0.322143    0.286429     0.007504
PD1074   PD        0.429286    0.286429    0.286429     0.005394
AU1075   AU        0.429286    0.322143    0.322143     0.007504
AU1076   AU        0.465000    0.286429    0.322143     0.007504
AU1077   AU        0.465000    0.322143    0.286429     0.007504
PD1078   PD        0.500714    0.286429    0.286429     0.005394
PD1079   PD        0.500714    0.322143    0.322143     0.005394
AU1080   AU        0.536429    0.286429    0.322143     0.007504
AU1081   AU        0.536429    0.322143    0.286429     0.007504
PD1082   PD        0.572143    0.286429    0.286429     0.005394
AU1083   AU        0.572143    0.322143    0.322143     0.007504
AU1084   AU        0.607857    0.286429    0.322143     0.007504
PD1085   PD        0.607857    0.322143    0.286429     0.005394
AU1086   AU        0.643571    0.286429    0.286429     0.007504
PD1087   PD        0.643571    0.322143    0.322143     0.005394
PD1088   PD        0.679286    0.286429    0.322143     0.005394
PD1089   PD        0.679286    0.322143    0.286429     0.005394
PD1090   PD        0.715000    0.286429    0.286429     0.005394
PD1091   PD        0.715000    0.322143    0.322143     0.005394
PD1092   PD        0.750714    0.286429    0.322143     0.005394
PD1093   PD        0.750714    0.322143    0.286429     0.005394
AU1094   AU        0.786429    0.286429    0.286429     0.007504
PD1095   PD        0.786429    0.322143    0.322143     0.005394
PD1096   PD        0.822143    0.286429    0.322143     0.005394
AU1097   AU        0.822143    0.322143    0.286429     0.007504
AU1098   AU        0.036429    0.357857    0.322143     0.007504
PD1099   PD        0.036429    0.393571    0.286429     0.005394
AU1100   AU        0.072143    0.357857    0.286429     0.007504
PD1101   PD        0.072143    0.393571    0.322143     0.005394
AU1102   AU        0.107857    0.357857    0.322143     0.007504
PD1103   PD        0.107857    0.393571    0.286429     0.005394
AU1104   AU        0.143571    0.357857    0.286429     0.007504
AU1105   AU        0.143571    0.393571    0.322143     0.007504
PD1106   PD        0.179286    0.357857    0.322143     0.005394
PD1107   PD        0.179286    0.393571    0.286429     0.005394
AU1108   AU        0.215000    0.357857    0.286429     0.007504
AU1109   AU        0.215000    0.393571    0.322143     0.007504
AU1110   AU        0.250714    0.357857    0.322143     0.007504
PD1111   PD        0.250714    0.393571    0.286429     0.005394
AU1112   AU        0.286429    0.357857    0.286429     0.007504
PD1113   PD        0.286429    0.393571    0.322143     0.005394
PD1114   PD        0.322143    0.357857    0.322143     0.005394
PD1115   PD        0.322143    0.393571    0.286429     0.005394
AU1116   AU        0.357857    0.357857    0.286429     0.007504
PD1117   PD        0.357857    0.393571    0.322143     0.005394
AU1118   AU        0.393571    0.357857    0.322143     0.007504
AU1119   AU        0.393571    0.393571    0.286429     0.007504
PD1120   PD        0.429286    0.357857    0.286429     0.005394
PD1121   PD        0.429286    0.393571    0.322143     0.005394
PD1122   PD        0.465000    0.357857    0.322143     0.005394
PD1123   PD        0.465000    0.393571    0.286429     0.005394
AU1124   AU        0.500714    0.357857    0.286429     0.007504
PD1125   PD        0.500714    0.393571    0.322143     0.005394
PD1126   PD        0.536429    0.357857    0.322143     0.005394
PD1127   PD        0.536429    0.393571    0.286429     0.005394
AU1128   AU        0.572143    0.357857    0.286429     0.007504
PD1129   PD        0.572143    0.393571    0.322143     0.005394
PD1130   PD        0.607857    0.357857    0.322143     0.005394
PD1131   PD        0.607857    0.393571    0.286429     0.005394
PD1132   PD        0.643571    0.357857    0.286429     0.005394
PD1133   PD        0.643571    0.393571    0.322143     0.005394
PD1134   PD        0.679286    0.357857    0.322143     0.005394
PD1135   PD        0.679286    0.393571    0.286429     0.005394
PD1136   PD        0.715000    0.357857    0.286429     0.005394
AU1137   AU        0.715000    0.393571    0.322143     0.007504
AU1138   AU        0.750714    0.357857    0.322143     0.007504
AU1139   AU        0.750714    0.393571    0.286429     0.007504
AU1140   AU        0.786429    0.357857    0.286429     0.007504
PD1141   PD        0.786429    0.393571    0.322143     0.005394
AU1142   AU        0.822143    0.357857    0.322143     0.007504
AU1143   AU        0.822143    0.393571    0.286429     0.007504
PD1144   PD        0.036429    0.429286    0.322143     0.005394
AU1145   AU        0.036429    0.465000    0.286429     0.007504
PD1146   PD        0.072143    0.429286    0.286429     0.005394
PD1147   PD        0.072143    0.465000    0.322143     0.005394
AU1148   AU        0.107857    0.429286    0.322143     0.007504
AU1149   AU        0.107857    0.465000    0.286429     0.007504
AU1150   AU        0.143571    0.429286    0.286429     0.007504
AU1151   AU        0.143571    0.465000    0.322143     0.007504
PD1152   PD        0.179286    0.429286    0.322143     0.005394
PD1153   PD        0.179286    0.465000    0.286429     0.005394
PD1154   PD        0.215000    0.429286    0.286429     0.005394
AU1155   AU        0.215000    0.465000    0.322143     0.007504
AU1156   AU        0.250714    0.429286    0.322143     0.007504
PD1157   PD        0.250714    0.465000    0.286429     0.005394
AU1158   AU        0.286429    0.429286    0.286429     0.007504
PD1159   PD        0.286429    0.465000    0.322143     0.005394
AU1160   AU        0.322143    0.429286    0.322143     0.007504
PD1161   PD        0.322143    0.465000    0.286429     0.005394
AU1162   AU        0.357857    0.429286    0.286429     0.007504
PD1163   PD        0.357857    0.465000    0.322143     0.005394
AU1164   AU        0.393571    0.429286    0.322143     0.007504
PD1165   PD        0.393571    0.465000    0.286429     0.005394
AU1166   AU        0.429286    0.429286    0.286429     0.007504
PD1167   PD        0.429286    0.465000    0.322143     0.005394
PD1168   PD        0.465000    0.429286    0.322143     0.005394
AU1169   AU        0.465000    0.465000    0.286429     0.007504
PD1170   PD        0.500714    0.429286    0.286429     0.005394
PD1171   PD        0.500714    0.465000    0.322143     0.005394
PD1172   PD        0.536429    0.429286    0.322143     0.005394
PD1173   PD        0.536429    0.465000    0.286429     0.005394
PD1174   PD        0.572143    0.429286    0.286429     0.005394
PD1175   PD        0.572143    0.465000    0.322143     0.005394
PD1176   PD        0.607857    0.429286    0.322143     0.005394
PD1177   PD        0.607857    0.465000    0.286429     0.005394
PD1178   PD        0.643571    0.429286    0.286429     0.005394
AU1179   AU        0.643571    0.465000    0.322143     0.007504
AU1180   AU        0.679286    0.429286    0.322143     0.007504
PD1181   PD        0.679286    0.465000    0.286429     0.005394
AU1182   AU        0.715000    0.429286    0.286429     0.007504
PD1183   PD        0.715000    0.465000    0.322143     0.005394
PD1184   PD        0.750714    0.429286    0.322143     0.005394
AU1185   AU        0.750714    0.465000    0.286429     0.007504
PD1186   PD        0.786429    0.429286    0.286429     0.005394
PD1187   PD        0.786429    0.465000    0.322143     0.005394
PD1188   PD        0.822143    0.429286    0.322143     0.005394
AU1189   AU        0.822143    0.465000    0.286429     0.007504
PD1190   PD        0.036429    0.500714    0.322143     0.005394
PD1191   PD        0.036429    0.536429    0.286429     0.005394
AU1192   AU        0.072143    0.500714    0.286429     0.007504
AU1193   AU        0.072143    0.536429    0.322143     0.007504
AU1194   AU        0.107857    0.500714    0.322143     0.007504
PD1195   PD        0.107857    0.536429    0.286429     0.005394
PD1196   PD        0.143571    0.500714    0.286429     0.005394
PD1197   PD        0.143571    0.536429    0.322143     0.005394
PD1198   PD        0.179286    0.500714    0.322143     0.005394
PD1199   PD        0.179286    0.536429    0.286429     0.005394
PD1200   PD        0.215000    0.500714    0.286429     0.005394
PD1201   PD        0.215000    0.536429    0.322143     0.005394
PD1202   PD        0.250714    0.500714    0.322143     0.005394
PD1203   PD        0.250714    0.536429    0.286429     0.005394
AU1204   AU        0.286429    0.500714    0.286429     0.007504
PD1205   PD        0.286429    0.536429    0.322143     0.005394
PD1206   PD        0.322143    0.500714    0.322143     0.005394
PD1207   PD        0.322143    0.536429    0.286429     0.005394
PD1208   PD        0.357857    0.500714    0.286429     0.005394
PD1209   PD        0.357857    0.536429    0.322143     0.005394
PD1210   PD        0.393571    0.500714    0.322143     0.005394
AU1211   AU        0.393571    0.536429    0.286429     0.007504
AU1212   AU        0.429286    0.500714    0.286429     0.007504
AU1213   AU        0.429286    0.536429    0.322143     0.007504
PD1214   PD        0.465000    0.500714    0.322143     0.005394
PD1215   PD        0.465000    0.536429    0.286429     0.005394
PD1216   PD        0.500714    0.500714    0.286429     0.005394
AU1217   AU        0.500714    0.536429    0.322143     0.007504
PD1218   PD        0.536429    0.500714    0.322143     0.005394
AU1219   AU        0.536429    0.536429    0.286429     0.007504
PD1220   PD        0.572143    0.500714    0.286429     0.005394
AU1221   AU        0.572143    0.536429    0.322143     0.007504
AU1222   AU        0.607857    0.500714    0.322143     0.007504
PD1223   PD        0.607857    0.536429    0.286429     0.005394
AU1224   AU        0.643571    0.500714    0.286429     0.007504
PD1225   PD        0.643571    0.536429    0.322143     0.005394
PD1226   PD        0.679286    0.500714    0.322143     0.005394
PD1227   PD        0.679286    0.536429    0.286429     0.005394
PD1228   PD        0.715000    0.500714    0.286429     0.005394
PD1229   PD        0.715000    0.536429    0.322143     0.005394
PD1230   PD        0.750714    0.500714    0.322143     0.005394
AU1231   AU        0.750714    0.536429    0.286429     0.007504
PD1232   PD        0.786429    0.500714    0.286429     0.005394
AU1233   AU        0.786429    0.536429    0.322143     0.007504
AU1234   AU        0.822143    0.500714    0.322143     0.007504
AU1235   AU        0.822143    0.536429    0.286429     0.007504
AU1236   AU        0.036429    0.572143    0.322143     0.007504
AU1237   AU        0.072143    0.572143    0.286429     0.007504
AU1238   AU        0.072143    0.607857    0.322143     0.007504
PD1239   PD        0.107857    0.572143    0.322143     0.005394
PD1240   PD        0.107857    0.607857    0.286429     0.005394
PD1241   PD        0.143571    0.572143    0.286429     0.005394
AU1242   AU        0.143571    0.607857    0.322143     0.007504
AU1243   AU        0.179286    0.572143    0.322143     0.007504
AU1244   AU        0.179286    0.607857    0.286429     0.007504
AU1245   AU        0.215000    0.572143    0.286429     0.007504
AU1246   AU        0.215000    0.607857    0.322143     0.007504
PD1247   PD        0.250714    0.572143    0.322143     0.005394
AU1248   AU        0.250714    0.607857    0.286429     0.007504
PD1249   PD        0.286429    0.572143    0.286429     0.005394
AU1250   AU        0.286429    0.607857    0.322143     0.007504
PD1251   PD        0.322143    0.572143    0.322143     0.005394
PD1252   PD        0.322143    0.607857    0.286429     0.005394
PD1253   PD        0.357857    0.572143    0.286429     0.005394
PD1254   PD        0.357857    0.607857    0.322143     0.005394
AU1255   AU        0.393571    0.572143    0.322143     0.007504
PD1256   PD        0.393571    0.607857    0.286429     0.005394
PD1257   PD        0.429286    0.572143    0.286429     0.005394
PD1258   PD        0.429286    0.607857    0.322143     0.005394
PD1259   PD        0.465000    0.572143    0.322143     0.005394
AU1260   AU        0.465000    0.607857    0.286429     0.007504
PD1261   PD        0.500714    0.572143    0.286429     0.005394
AU1262   AU        0.500714    0.607857    0.322143     0.007504
PD1263   PD        0.536429    0.572143    0.322143     0.005394
AU1264   AU        0.536429    0.607857    0.286429     0.007504
AU1265   AU        0.572143    0.572143    0.286429     0.007504
AU1266   AU        0.572143    0.607857    0.322143     0.007504
PD1267   PD        0.607857    0.572143    0.322143     0.005394
PD1268   PD        0.607857    0.607857    0.286429     0.005394
AU1269   AU        0.643571    0.572143    0.286429     0.007504
PD1270   PD        0.643571    0.607857    0.322143     0.005394
AU1271   AU        0.679286    0.572143    0.322143     0.007504
AU1272   AU        0.679286    0.607857    0.286429     0.007504
PD1273   PD        0.715000    0.572143    0.286429     0.005394
AU1274   AU        0.715000    0.607857    0.322143     0.007504
AU1275   AU        0.750714    0.572143    0.322143     0.007504
PD1276   PD        0.750714    0.607857    0.286429     0.005394
PD1277   PD        0.786429    0.572143    0.286429     0.005394
PD1278   PD        0.786429    0.607857    0.322143     0.005394
PD1279   PD        0.822143    0.572143    0.322143     0.005394
PD1280   PD        0.107857    0.643571    0.322143     0.005394
AU1281   AU        0.107857    0.679286    0.286429     0.007504
AU1282   AU        0.143571    0.643571    0.286429     0.007504
PD1283   PD        0.143571    0.679286    0.322143     0.005394
PD1284   PD        0.179286    0.643571    0.322143     0.005394
AU1285   AU        0.179286    0.679286    0.286429     0.007504
PD1286   PD        0.215000    0.643571    0.286429     0.005394
PD1287   PD        0.215000    0.679286    0.322143     0.005394
AU1288   AU        0.250714    0.643571    0.322143     0.007504
AU1289   AU        0.250714    0.679286    0.286429     0.007504
AU1290   AU        0.286429    0.643571    0.286429     0.007504
PD1291   PD        0.286429    0.679286    0.322143     0.005394
AU1292   AU        0.322143    0.643571    0.322143     0.007504
PD1293   PD        0.322143    0.679286    0.286429     0.005394
AU1294   AU        0.357857    0.643571    0.286429     0.007504
AU1295   AU        0.357857    0.679286    0.322143     0.007504
AU1296   AU        0.393571    0.643571    0.322143     0.007504
AU1297   AU        0.393571    0.679286    0.286429     0.007504
PD1298   PD        0.429286    0.643571    0.286429     0.005394
PD1299   PD        0.429286    0.679286    0.322143     0.005394
AU1300   AU        0.465000    0.643571    0.322143     0.007504
PD1301   PD        0.465000    0.679286    0.286429     0.005394
AU1302   AU        0.500714    0.643571    0.286429     0.007504
AU1303   AU        0.500714    0.679286    0.322143     0.007504
AU1304   AU        0.536429    0.643571    0.322143     0.007504
PD1305   PD        0.536429    0.679286    0.286429     0.005394
PD1306   PD        0.572143    0.643571    0.286429     0.005394
AU1307   AU        0.572143    0.679286    0.322143     0.007504
PD1308   PD        0.607857    0.643571    0.322143     0.005394
PD1309   PD        0.607857    0.679286    0.286429     0.005394
AU1310   AU        0.643571    0.643571    0.286429     0.007504
PD1311   PD        0.643571    0.679286    0.322143     0.005394
AU1312   AU        0.679286    0.643571    0.322143     0.007504
AU1313   AU        0.679286    0.679286    0.286429     0.007504
AU1314   AU        0.715000    0.643571    0.286429     0.007504
AU1315   AU        0.715000    0.679286    0.322143     0.007504
PD1316   PD        0.750714    0.643571    0.322143     0.005394
AU1317   AU        0.750714    0.679286    0.286429     0.007504
PD1318   PD        0.143571    0.715000    0.286429     0.005394
PD1319   PD        0.179286    0.715000    0.322143     0.005394
PD1320   PD        0.179286    0.750714    0.286429     0.005394
AU1321   AU        0.215000    0.715000    0.286429     0.007504
AU1322   AU        0.215000    0.750714    0.322143     0.007504
PD1323   PD        0.250714    0.715000    0.322143     0.005394
PD1324   PD        0.250714    0.750714    0.286429     0.005394
PD1325   PD        0.286429    0.715000    0.286429     0.005394
PD1326   PD        0.286429    0.750714    0.322143     0.005394
PD1327   PD        0.322143    0.715000    0.322143     0.005394
AU1328   AU        0.322143    0.750714    0.286429     0.007504
AU1329   AU        0.357857    0.715000    0.286429     0.007504
AU1330   AU        0.357857    0.750714    0.322143     0.007504
PD1331   PD        0.393571    0.715000    0.322143     0.005394
PD1332   PD        0.393571    0.750714    0.286429     0.005394
PD1333   PD        0.429286    0.715000    0.286429     0.005394
AU1334   AU        0.429286    0.750714    0.322143     0.007504
AU1335   AU        0.465000    0.715000    0.322143     0.007504
PD1336   PD        0.465000    0.750714    0.286429     0.005394
PD1337   PD        0.500714    0.715000    0.286429     0.005394
AU1338   AU        0.500714    0.750714    0.322143     0.007504
AU1339   AU        0.536429    0.715000    0.322143     0.007504
AU1340   AU        0.536429    0.750714    0.286429     0.007504
AU1341   AU        0.572143    0.715000    0.286429     0.007504
AU1342   AU        0.572143    0.750714    0.322143     0.007504
PD1343   PD        0.607857    0.715000    0.322143     0.005394
AU1344   AU        0.607857    0.750714    0.286429     0.007504
PD1345   PD        0.643571    0.715000    0.286429     0.005394
PD1346   PD        0.643571    0.750714    0.322143     0.005394
AU1347   AU        0.679286    0.715000    0.322143     0.007504
PD1348   PD        0.679286    0.750714    0.286429     0.005394
PD1349   PD        0.715000    0.715000    0.286429     0.005394
AU1350   AU        0.250714    0.786429    0.322143     0.007504
AU1351   AU        0.286429    0.786429    0.286429     0.007504
AU1352   AU        0.286429    0.822143    0.322143     0.007504
AU1353   AU        0.322143    0.786429    0.322143     0.007504
AU1354   AU        0.322143    0.822143    0.286429     0.007504
PD1355   PD        0.357857    0.786429    0.286429     0.005394
PD1356   PD        0.357857    0.822143    0.322143     0.005394
PD1357   PD        0.393571    0.786429    0.322143     0.005394
AU1358   AU        0.393571    0.822143    0.286429     0.007504
PD1359   PD        0.429286    0.786429    0.286429     0.005394
AU1360   AU        0.429286    0.822143    0.322143     0.007504
AU1361   AU        0.465000    0.786429    0.322143     0.007504
AU1362   AU        0.465000    0.822143    0.286429     0.007504
PD1363   PD        0.500714    0.786429    0.286429     0.005394
AU1364   AU        0.500714    0.822143    0.322143     0.007504
AU1365   AU        0.536429    0.786429    0.322143     0.007504
AU1366   AU        0.536429    0.822143    0.286429     0.007504
AU1367   AU        0.572143    0.786429    0.286429     0.007504
PD1368   PD        0.572143    0.822143    0.322143     0.005394
AU1369   AU        0.607857    0.786429    0.322143     0.007504
PD1370   PD        0.250714    0.036429    0.357857     0.005394
PD1371   PD        0.286429    0.036429    0.393571     0.005394
AU1372   AU        0.322143    0.036429    0.357857     0.007504
PD1373   PD        0.357857    0.036429    0.393571     0.005394
PD1374   PD        0.393571    0.000714    0.393571     0.005394
AU1375   AU        0.393571    0.036429    0.357857     0.007504
PD1376   PD        0.429286    0.000714    0.357857     0.005394
AU1377   AU        0.429286    0.036429    0.393571     0.007504
PD1378   PD        0.465000    0.000714    0.393571     0.005394
AU1379   AU        0.465000    0.036429    0.357857     0.007504
AU1380   AU        0.500714    0.036429    0.393571     0.007504
AU1381   AU        0.536429    0.036429    0.357857     0.007504
PD1382   PD        0.572143    0.036429    0.393571     0.005394
AU1383   AU        0.607857    0.036429    0.357857     0.007504
AU1384   AU        0.143571    0.107857    0.393571     0.007504
AU1385   AU        0.179286    0.072143    0.393571     0.007504
PD1386   PD        0.179286    0.107857    0.357857     0.005394
AU1387   AU        0.215000    0.072143    0.357857     0.007504
PD1388   PD        0.215000    0.107857    0.393571     0.005394
PD1389   PD        0.250714    0.072143    0.393571     0.005394
PD1390   PD        0.250714    0.107857    0.357857     0.005394
PD1391   PD        0.286429    0.072143    0.357857     0.005394
PD1392   PD        0.286429    0.107857    0.393571     0.005394
PD1393   PD        0.322143    0.072143    0.393571     0.005394
AU1394   AU        0.322143    0.107857    0.357857     0.007504
PD1395   PD        0.357857    0.072143    0.357857     0.005394
PD1396   PD        0.357857    0.107857    0.393571     0.005394
AU1397   AU        0.393571    0.072143    0.393571     0.007504
AU1398   AU        0.393571    0.107857    0.357857     0.007504
PD1399   PD        0.429286    0.072143    0.357857     0.005394
PD1400   PD        0.429286    0.107857    0.393571     0.005394
AU1401   AU        0.465000    0.072143    0.393571     0.007504
PD1402   PD        0.465000    0.107857    0.357857     0.005394
PD1403   PD        0.500714    0.072143    0.357857     0.005394
PD1404   PD        0.500714    0.107857    0.393571     0.005394
PD1405   PD        0.536429    0.072143    0.393571     0.005394
PD1406   PD        0.536429    0.107857    0.357857     0.005394
AU1407   AU        0.572143    0.072143    0.357857     0.007504
AU1408   AU        0.572143    0.107857    0.393571     0.007504
AU1409   AU        0.607857    0.072143    0.393571     0.007504
AU1410   AU        0.607857    0.107857    0.357857     0.007504
PD1411   PD        0.643571    0.072143    0.357857     0.005394
PD1412   PD        0.643571    0.107857    0.393571     0.005394
AU1413   AU        0.679286    0.072143    0.393571     0.007504
PD1414   PD        0.679286    0.107857    0.357857     0.005394
AU1415   AU        0.715000    0.107857    0.393571     0.007504
PD1416   PD        0.072143    0.179286    0.393571     0.005394
PD1417   PD        0.107857    0.143571    0.393571     0.005394
AU1418   AU        0.107857    0.179286    0.357857     0.007504
AU1419   AU        0.143571    0.143571    0.357857     0.007504
AU1420   AU        0.143571    0.179286    0.393571     0.007504
PD1421   PD        0.179286    0.143571    0.393571     0.005394
PD1422   PD        0.179286    0.179286    0.357857     0.005394
AU1423   AU        0.215000    0.143571    0.357857     0.007504
AU1424   AU        0.215000    0.179286    0.393571     0.007504
PD1425   PD        0.250714    0.143571    0.393571     0.005394
AU1426   AU        0.250714    0.179286    0.357857     0.007504
PD1427   PD        0.286429    0.143571    0.357857     0.005394
PD1428   PD        0.286429    0.179286    0.393571     0.005394
PD1429   PD        0.322143    0.143571    0.393571     0.005394
AU1430   AU        0.322143    0.179286    0.357857     0.007504
AU1431   AU        0.357857    0.143571    0.357857     0.007504
PD1432   PD        0.357857    0.179286    0.393571     0.005394
PD1433   PD        0.393571    0.143571    0.393571     0.005394
AU1434   AU        0.393571    0.179286    0.357857     0.007504
PD1435   PD        0.429286    0.143571    0.357857     0.005394
AU1436   AU        0.429286    0.179286    0.393571     0.007504
AU1437   AU        0.465000    0.143571    0.393571     0.007504
PD1438   PD        0.465000    0.179286    0.357857     0.005394
AU1439   AU        0.500714    0.143571    0.357857     0.007504
AU1440   AU        0.500714    0.179286    0.393571     0.007504
PD1441   PD        0.536429    0.143571    0.393571     0.005394
AU1442   AU        0.536429    0.179286    0.357857     0.007504
PD1443   PD        0.572143    0.143571    0.357857     0.005394
AU1444   AU        0.572143    0.179286    0.393571     0.007504
PD1445   PD        0.607857    0.143571    0.393571     0.005394
PD1446   PD        0.607857    0.179286    0.357857     0.005394
PD1447   PD        0.643571    0.143571    0.357857     0.005394
PD1448   PD        0.643571    0.179286    0.393571     0.005394
AU1449   AU        0.679286    0.143571    0.393571     0.007504
AU1450   AU        0.679286    0.179286    0.357857     0.007504
AU1451   AU        0.715000    0.143571    0.357857     0.007504
PD1452   PD        0.715000    0.179286    0.393571     0.005394
AU1453   AU        0.750714    0.143571    0.393571     0.007504
AU1454   AU        0.750714    0.179286    0.357857     0.007504
AU1455   AU        0.786429    0.179286    0.393571     0.007504
AU1456   AU        0.036429    0.250714    0.357857     0.007504
AU1457   AU        0.072143    0.215000    0.357857     0.007504
AU1458   AU        0.072143    0.250714    0.393571     0.007504
PD1459   PD        0.107857    0.215000    0.393571     0.005394
PD1460   PD        0.107857    0.250714    0.357857     0.005394
AU1461   AU        0.143571    0.215000    0.357857     0.007504
AU1462   AU        0.143571    0.250714    0.393571     0.007504
PD1463   PD        0.179286    0.215000    0.393571     0.005394
AU1464   AU        0.179286    0.250714    0.357857     0.007504
PD1465   PD        0.215000    0.215000    0.357857     0.005394
PD1466   PD        0.215000    0.250714    0.393571     0.005394
PD1467   PD        0.250714    0.215000    0.393571     0.005394
PD1468   PD        0.250714    0.250714    0.357857     0.005394
PD1469   PD        0.286429    0.215000    0.357857     0.005394
PD1470   PD        0.286429    0.250714    0.393571     0.005394
PD1471   PD        0.322143    0.215000    0.393571     0.005394
PD1472   PD        0.322143    0.250714    0.357857     0.005394
AU1473   AU        0.357857    0.215000    0.357857     0.007504
PD1474   PD        0.357857    0.250714    0.393571     0.005394
AU1475   AU        0.393571    0.215000    0.393571     0.007504
AU1476   AU        0.393571    0.250714    0.357857     0.007504
PD1477   PD        0.429286    0.215000    0.357857     0.005394
PD1478   PD        0.429286    0.250714    0.393571     0.005394
PD1479   PD        0.465000    0.215000    0.393571     0.005394
AU1480   AU        0.465000    0.250714    0.357857     0.007504
AU1481   AU        0.500714    0.215000    0.357857     0.007504
PD1482   PD        0.500714    0.250714    0.393571     0.005394
AU1483   AU        0.536429    0.215000    0.393571     0.007504
AU1484   AU        0.536429    0.250714    0.357857     0.007504
AU1485   AU        0.572143    0.215000    0.357857     0.007504
PD1486   PD        0.572143    0.250714    0.393571     0.005394
PD1487   PD        0.607857    0.215000    0.393571     0.005394
AU1488   AU        0.607857    0.250714    0.357857     0.007504
AU1489   AU        0.643571    0.215000    0.357857     0.007504
PD1490   PD        0.643571    0.250714    0.393571     0.005394
AU1491   AU        0.679286    0.215000    0.393571     0.007504
PD1492   PD        0.679286    0.250714    0.357857     0.005394
PD1493   PD        0.715000    0.215000    0.357857     0.005394
PD1494   PD        0.715000    0.250714    0.393571     0.005394
PD1495   PD        0.750714    0.215000    0.393571     0.005394
PD1496   PD        0.750714    0.250714    0.357857     0.005394
PD1497   PD        0.786429    0.215000    0.357857     0.005394
PD1498   PD        0.786429    0.250714    0.393571     0.005394
AU1499   AU        0.822143    0.250714    0.357857     0.007504
AU1500   AU        0.036429    0.286429    0.393571     0.007504
PD1501   PD        0.036429    0.322143    0.357857     0.005394
PD1502   PD        0.072143    0.286429    0.357857     0.005394
AU1503   AU        0.072143    0.322143    0.393571     0.007504
PD1504   PD        0.107857    0.286429    0.393571     0.005394
PD1505   PD        0.107857    0.322143    0.357857     0.005394
PD1506   PD        0.143571    0.286429    0.357857     0.005394
AU1507   AU        0.143571    0.322143    0.393571     0.007504
AU1508   AU        0.179286    0.286429    0.393571     0.007504
AU1509   AU        0.179286    0.322143    0.357857     0.007504
AU1510   AU        0.215000    0.286429    0.357857     0.007504
AU1511   AU        0.215000    0.322143    0.393571     0.007504
PD1512   PD        0.250714    0.286429    0.393571     0.005394
AU1513   AU        0.250714    0.322143    0.357857     0.007504
PD1514   PD        0.286429    0.286429    0.357857     0.005394
PD1515   PD        0.286429    0.322143    0.393571     0.005394
PD1516   PD        0.322143    0.286429    0.393571     0.005394
PD1517   PD        0.322143    0.322143    0.357857     0.005394
AU1518   AU        0.357857    0.286429    0.357857     0.007504
PD1519   PD        0.357857    0.322143    0.393571     0.005394
AU1520   AU        0.393571    0.286429    0.393571     0.007504
AU1521   AU        0.393571    0.322143    0.357857     0.007504
PD1522   PD        0.429286    0.286429    0.357857     0.005394
PD1523   PD        0.429286    0.322143    0.393571     0.005394
AU1524   AU        0.465000    0.286429    0.393571     0.007504
AU1525   AU        0.465000    0.322143    0.357857     0.007504
PD1526   PD        0.500714    0.286429    0.357857     0.005394
AU1527   AU        0.500714    0.322143    0.393571     0.007504
PD1528   PD        0.536429    0.286429    0.393571     0.005394
PD1529   PD        0.536429    0.322143    0.357857     0.005394
PD1530   PD        0.572143    0.286429    0.357857     0.005394
AU1531   AU        0.572143    0.322143    0.393571     0.007504
AU1532   AU        0.607857    0.286429    0.393571     0.007504
AU1533   AU        0.607857    0.322143    0.357857     0.007504
AU1534   AU        0.643571    0.286429    0.357857     0.007504
AU1535   AU        0.643571    0.322143    0.393571     0.007504
AU1536   AU        0.679286    0.286429    0.393571     0.007504
AU1537   AU        0.679286    0.322143    0.357857     0.007504
AU1538   AU        0.715000    0.286429    0.357857     0.007504
PD1539   PD        0.715000    0.322143    0.393571     0.005394
AU1540   AU        0.750714    0.286429    0.393571     0.007504
AU1541   AU        0.750714    0.322143    0.357857     0.007504
PD1542   PD        0.786429    0.286429    0.357857     0.005394
AU1543   AU        0.786429    0.322143    0.393571     0.007504
PD1544   PD        0.822143    0.286429    0.393571     0.005394
PD1545   PD        0.822143    0.322143    0.357857     0.005394
PD1546   PD        0.000714    0.393571    0.393571     0.005394
AU1547   AU        0.036429    0.357857    0.393571     0.007504
PD1548   PD        0.036429    0.393571    0.357857     0.005394
AU1549   AU        0.072143    0.357857    0.357857     0.007504
AU1550   AU        0.072143    0.393571    0.393571     0.007504
PD1551   PD        0.107857    0.357857    0.393571     0.005394
AU1552   AU        0.107857    0.393571    0.357857     0.007504
PD1553   PD        0.143571    0.357857    0.357857     0.005394
PD1554   PD        0.143571    0.393571    0.393571     0.005394
PD1555   PD        0.179286    0.357857    0.393571     0.005394
AU1556   AU        0.179286    0.393571    0.357857     0.007504
AU1557   AU        0.215000    0.357857    0.357857     0.007504
PD1558   PD        0.215000    0.393571    0.393571     0.005394
PD1559   PD        0.250714    0.357857    0.393571     0.005394
PD1560   PD        0.250714    0.393571    0.357857     0.005394
PD1561   PD        0.286429    0.357857    0.357857     0.005394
AU1562   AU        0.286429    0.393571    0.393571     0.007504
PD1563   PD        0.322143    0.357857    0.393571     0.005394
PD1564   PD        0.322143    0.393571    0.357857     0.005394
AU1565   AU        0.357857    0.357857    0.357857     0.007504
PD1566   PD        0.357857    0.393571    0.393571     0.005394
AU1567   AU        0.393571    0.357857    0.393571     0.007504
PD1568   PD        0.393571    0.393571    0.357857     0.005394
PD1569   PD        0.429286    0.357857    0.357857     0.005394
AU1570   AU        0.429286    0.393571    0.393571     0.007504
PD1571   PD        0.465000    0.357857    0.393571     0.005394
AU1572   AU        0.465000    0.393571    0.357857     0.007504
PD1573   PD        0.500714    0.357857    0.357857     0.005394
PD1574   PD        0.500714    0.393571    0.393571     0.005394
AU1575   AU        0.536429    0.357857    0.393571     0.007504
PD1576   PD        0.536429    0.393571    0.357857     0.005394
AU1577   AU        0.572143    0.357857    0.357857     0.007504
AU1578   AU        0.572143    0.393571    0.393571     0.007504
PD1579   PD        0.607857    0.357857    0.393571     0.005394
AU1580   AU        0.607857    0.393571    0.357857     0.007504
AU1581   AU        0.643571    0.357857    0.357857     0.007504
PD1582   PD        0.643571    0.393571    0.393571     0.005394
PD1583   PD        0.679286    0.357857    0.393571     0.005394
AU1584   AU        0.679286    0.393571    0.357857     0.007504
PD1585   PD        0.715000    0.357857    0.357857     0.005394
AU1586   AU        0.715000    0.393571    0.393571     0.007504
PD1587   PD        0.750714    0.357857    0.393571     0.005394
PD1588   PD        0.750714    0.393571    0.357857     0.005394
AU1589   AU        0.786429    0.357857    0.357857     0.007504
PD1590   PD        0.786429    0.393571    0.393571     0.005394
PD1591   PD        0.822143    0.357857    0.393571     0.005394
PD1592   PD        0.822143    0.393571    0.357857     0.005394
PD1593   PD        0.857857    0.393571    0.393571     0.005394
PD1594   PD        0.000714    0.429286    0.357857     0.005394
PD1595   PD        0.000714    0.465000    0.393571     0.005394
PD1596   PD        0.036429    0.429286    0.393571     0.005394
AU1597   AU        0.036429    0.465000    0.357857     0.007504
AU1598   AU        0.072143    0.429286    0.357857     0.007504
AU1599   AU        0.072143    0.465000    0.393571     0.007504
AU1600   AU        0.107857    0.429286    0.393571     0.007504
PD1601   PD        0.107857    0.465000    0.357857     0.005394
AU1602   AU        0.143571    0.429286    0.357857     0.007504
AU1603   AU        0.143571    0.465000    0.393571     0.007504
PD1604   PD        0.179286    0.429286    0.393571     0.005394
AU1605   AU        0.179286    0.465000    0.357857     0.007504
PD1606   PD        0.215000    0.429286    0.357857     0.005394
PD1607   PD        0.215000    0.465000    0.393571     0.005394
PD1608   PD        0.250714    0.429286    0.393571     0.005394
PD1609   PD        0.250714    0.465000    0.357857     0.005394
AU1610   AU        0.286429    0.429286    0.357857     0.007504
PD1611   PD        0.286429    0.465000    0.393571     0.005394
AU1612   AU        0.322143    0.429286    0.393571     0.007504
PD1613   PD        0.322143    0.465000    0.357857     0.005394
AU1614   AU        0.357857    0.429286    0.357857     0.007504
PD1615   PD        0.357857    0.465000    0.393571     0.005394
AU1616   AU        0.393571    0.429286    0.393571     0.007504
PD1617   PD        0.393571    0.465000    0.357857     0.005394
AU1618   AU        0.429286    0.429286    0.357857     0.007504
AU1619   AU        0.429286    0.465000    0.393571     0.007504
AU1620   AU        0.465000    0.429286    0.393571     0.007504
PD1621   PD        0.465000    0.465000    0.357857     0.005394
AU1622   AU        0.500714    0.429286    0.357857     0.007504
AU1623   AU        0.500714    0.465000    0.393571     0.007504
PD1624   PD        0.536429    0.429286    0.393571     0.005394
AU1625   AU        0.536429    0.465000    0.357857     0.007504
AU1626   AU        0.572143    0.429286    0.357857     0.007504
AU1627   AU        0.572143    0.465000    0.393571     0.007504
PD1628   PD        0.607857    0.429286    0.393571     0.005394
PD1629   PD        0.607857    0.465000    0.357857     0.005394
AU1630   AU        0.643571    0.429286    0.357857     0.007504
AU1631   AU        0.643571    0.465000    0.393571     0.007504
PD1632   PD        0.679286    0.429286    0.393571     0.005394
AU1633   AU        0.679286    0.465000    0.357857     0.007504
PD1634   PD        0.715000    0.429286    0.357857     0.005394
PD1635   PD        0.715000    0.465000    0.393571     0.005394
PD1636   PD        0.750714    0.429286    0.393571     0.005394
AU1637   AU        0.750714    0.465000    0.357857     0.007504
AU1638   AU        0.786429    0.429286    0.357857     0.007504
AU1639   AU        0.786429    0.465000    0.393571     0.007504
PD1640   PD        0.822143    0.429286    0.393571     0.005394
AU1641   AU        0.822143    0.465000    0.357857     0.007504
AU1642   AU        0.857857    0.429286    0.357857     0.007504
PD1643   PD        0.857857    0.465000    0.393571     0.005394
PD1644   PD        0.036429    0.500714    0.393571     0.005394
AU1645   AU        0.036429    0.536429    0.357857     0.007504
PD1646   PD        0.072143    0.500714    0.357857     0.005394
AU1647   AU        0.072143    0.536429    0.393571     0.007504
PD1648   PD        0.107857    0.500714    0.393571     0.005394
PD1649   PD        0.107857    0.536429    0.357857     0.005394
AU1650   AU        0.143571    0.500714    0.357857     0.007504
AU1651   AU        0.143571    0.536429    0.393571     0.007504
AU1652   AU        0.179286    0.500714    0.393571     0.007504
AU1653   AU        0.179286    0.536429    0.357857     0.007504
AU1654   AU        0.215000    0.500714    0.357857     0.007504
PD1655   PD        0.215000    0.536429    0.393571     0.005394
PD1656   PD        0.250714    0.500714    0.393571     0.005394
PD1657   PD        0.250714    0.536429    0.357857     0.005394
PD1658   PD        0.286429    0.500714    0.357857     0.005394
PD1659   PD        0.286429    0.536429    0.393571     0.005394
AU1660   AU        0.322143    0.500714    0.393571     0.007504
PD1661   PD        0.322143    0.536429    0.357857     0.005394
PD1662   PD        0.357857    0.500714    0.357857     0.005394
AU1663   AU        0.357857    0.536429    0.393571     0.007504
PD1664   PD        0.393571    0.500714    0.393571     0.005394
PD1665   PD        0.393571    0.536429    0.357857     0.005394
AU1666   AU        0.429286    0.500714    0.357857     0.007504
PD1667   PD        0.429286    0.536429    0.393571     0.005394
PD1668   PD        0.465000    0.500714    0.393571     0.005394
PD1669   PD        0.465000    0.536429    0.357857     0.005394
PD1670   PD        0.500714    0.500714    0.357857     0.005394
PD1671   PD        0.500714    0.536429    0.393571     0.005394
AU1672   AU        0.536429    0.500714    0.393571     0.007504
AU1673   AU        0.536429    0.536429    0.357857     0.007504
AU1674   AU        0.572143    0.500714    0.357857     0.007504
PD1675   PD        0.572143    0.536429    0.393571     0.005394
AU1676   AU        0.607857    0.500714    0.393571     0.007504
AU1677   AU        0.607857    0.536429    0.357857     0.007504
PD1678   PD        0.643571    0.500714    0.357857     0.005394
AU1679   AU        0.643571    0.536429    0.393571     0.007504
PD1680   PD        0.679286    0.500714    0.393571     0.005394
AU1681   AU        0.679286    0.536429    0.357857     0.007504
PD1682   PD        0.715000    0.500714    0.357857     0.005394
PD1683   PD        0.715000    0.536429    0.393571     0.005394
PD1684   PD        0.750714    0.500714    0.393571     0.005394
AU1685   AU        0.750714    0.536429    0.357857     0.007504
AU1686   AU        0.786429    0.500714    0.357857     0.007504
AU1687   AU        0.786429    0.536429    0.393571     0.007504
PD1688   PD        0.822143    0.500714    0.393571     0.005394
AU1689   AU        0.822143    0.536429    0.357857     0.007504
AU1690   AU        0.036429    0.572143    0.393571     0.007504
PD1691   PD        0.036429    0.607857    0.357857     0.005394
PD1692   PD        0.072143    0.572143    0.357857     0.005394
AU1693   AU        0.072143    0.607857    0.393571     0.007504
AU1694   AU        0.107857    0.572143    0.393571     0.007504
AU1695   AU        0.107857    0.607857    0.357857     0.007504
AU1696   AU        0.143571    0.572143    0.357857     0.007504
PD1697   PD        0.143571    0.607857    0.393571     0.005394
PD1698   PD        0.179286    0.572143    0.393571     0.005394
PD1699   PD        0.179286    0.607857    0.357857     0.005394
PD1700   PD        0.215000    0.572143    0.357857     0.005394
AU1701   AU        0.215000    0.607857    0.393571     0.007504
PD1702   PD        0.250714    0.572143    0.393571     0.005394
AU1703   AU        0.250714    0.607857    0.357857     0.007504
AU1704   AU        0.286429    0.572143    0.357857     0.007504
PD1705   PD        0.286429    0.607857    0.393571     0.005394
AU1706   AU        0.322143    0.572143    0.393571     0.007504
AU1707   AU        0.322143    0.607857    0.357857     0.007504
AU1708   AU        0.357857    0.572143    0.357857     0.007504
AU1709   AU        0.357857    0.607857    0.393571     0.007504
AU1710   AU        0.393571    0.572143    0.393571     0.007504
PD1711   PD        0.393571    0.607857    0.357857     0.005394
PD1712   PD        0.429286    0.572143    0.357857     0.005394
PD1713   PD        0.429286    0.607857    0.393571     0.005394
PD1714   PD        0.465000    0.572143    0.393571     0.005394
AU1715   AU        0.465000    0.607857    0.357857     0.007504
AU1716   AU        0.500714    0.572143    0.357857     0.007504
PD1717   PD        0.500714    0.607857    0.393571     0.005394
PD1718   PD        0.536429    0.572143    0.393571     0.005394
PD1719   PD        0.536429    0.607857    0.357857     0.005394
PD1720   PD        0.572143    0.572143    0.357857     0.005394
AU1721   AU        0.572143    0.607857    0.393571     0.007504
PD1722   PD        0.607857    0.572143    0.393571     0.005394
PD1723   PD        0.607857    0.607857    0.357857     0.005394
PD1724   PD        0.643571    0.572143    0.357857     0.005394
PD1725   PD        0.643571    0.607857    0.393571     0.005394
PD1726   PD        0.679286    0.572143    0.393571     0.005394
AU1727   AU        0.679286    0.607857    0.357857     0.007504
AU1728   AU        0.715000    0.572143    0.357857     0.007504
PD1729   PD        0.715000    0.607857    0.393571     0.005394
PD1730   PD        0.750714    0.572143    0.393571     0.005394
AU1731   AU        0.750714    0.607857    0.357857     0.007504
AU1732   AU        0.786429    0.572143    0.357857     0.007504
AU1733   AU        0.786429    0.607857    0.393571     0.007504
AU1734   AU        0.822143    0.572143    0.393571     0.007504
PD1735   PD        0.822143    0.607857    0.357857     0.005394
PD1736   PD        0.072143    0.643571    0.357857     0.005394
PD1737   PD        0.072143    0.679286    0.393571     0.005394
AU1738   AU        0.107857    0.643571    0.393571     0.007504
AU1739   AU        0.107857    0.679286    0.357857     0.007504
AU1740   AU        0.143571    0.643571    0.357857     0.007504
PD1741   PD        0.143571    0.679286    0.393571     0.005394
AU1742   AU        0.179286    0.643571    0.393571     0.007504
AU1743   AU        0.179286    0.679286    0.357857     0.007504
PD1744   PD        0.215000    0.643571    0.357857     0.005394
PD1745   PD        0.215000    0.679286    0.393571     0.005394
AU1746   AU        0.250714    0.643571    0.393571     0.007504
AU1747   AU        0.250714    0.679286    0.357857     0.007504
PD1748   PD        0.286429    0.643571    0.357857     0.005394
AU1749   AU        0.286429    0.679286    0.393571     0.007504
PD1750   PD        0.322143    0.643571    0.393571     0.005394
AU1751   AU        0.322143    0.679286    0.357857     0.007504
PD1752   PD        0.357857    0.643571    0.357857     0.005394
PD1753   PD        0.357857    0.679286    0.393571     0.005394
AU1754   AU        0.393571    0.643571    0.393571     0.007504
PD1755   PD        0.393571    0.679286    0.357857     0.005394
AU1756   AU        0.429286    0.643571    0.357857     0.007504
PD1757   PD        0.429286    0.679286    0.393571     0.005394
AU1758   AU        0.465000    0.643571    0.393571     0.007504
AU1759   AU        0.465000    0.679286    0.357857     0.007504
PD1760   PD        0.500714    0.643571    0.357857     0.005394
PD1761   PD        0.500714    0.679286    0.393571     0.005394
AU1762   AU        0.536429    0.643571    0.393571     0.007504
AU1763   AU        0.536429    0.679286    0.357857     0.007504
AU1764   AU        0.572143    0.643571    0.357857     0.007504
AU1765   AU        0.572143    0.679286    0.393571     0.007504
AU1766   AU        0.607857    0.643571    0.393571     0.007504
AU1767   AU        0.607857    0.679286    0.357857     0.007504
AU1768   AU        0.643571    0.643571    0.357857     0.007504
PD1769   PD        0.643571    0.679286    0.393571     0.005394
PD1770   PD        0.679286    0.643571    0.393571     0.005394
AU1771   AU        0.679286    0.679286    0.357857     0.007504
PD1772   PD        0.715000    0.643571    0.357857     0.005394
AU1773   AU        0.715000    0.679286    0.393571     0.007504
AU1774   AU        0.750714    0.643571    0.393571     0.007504
PD1775   PD        0.750714    0.679286    0.357857     0.005394
PD1776   PD        0.786429    0.643571    0.357857     0.005394
PD1777   PD        0.786429    0.679286    0.393571     0.005394
PD1778   PD        0.107857    0.715000    0.393571     0.005394
AU1779   AU        0.143571    0.715000    0.357857     0.007504
PD1780   PD        0.143571    0.750714    0.393571     0.005394
AU1781   AU        0.179286    0.715000    0.393571     0.007504
PD1782   PD        0.179286    0.750714    0.357857     0.005394
AU1783   AU        0.215000    0.715000    0.357857     0.007504
PD1784   PD        0.215000    0.750714    0.393571     0.005394
PD1785   PD        0.250714    0.715000    0.393571     0.005394
AU1786   AU        0.250714    0.750714    0.357857     0.007504
AU1787   AU        0.286429    0.715000    0.357857     0.007504
PD1788   PD        0.286429    0.750714    0.393571     0.005394
AU1789   AU        0.322143    0.715000    0.393571     0.007504
PD1790   PD        0.322143    0.750714    0.357857     0.005394
PD1791   PD        0.357857    0.715000    0.357857     0.005394
PD1792   PD        0.357857    0.750714    0.393571     0.005394
PD1793   PD        0.393571    0.715000    0.393571     0.005394
PD1794   PD        0.393571    0.750714    0.357857     0.005394
AU1795   AU        0.429286    0.715000    0.357857     0.007504
AU1796   AU        0.429286    0.750714    0.393571     0.007504
PD1797   PD        0.465000    0.715000    0.393571     0.005394
PD1798   PD        0.465000    0.750714    0.357857     0.005394
AU1799   AU        0.500714    0.715000    0.357857     0.007504
AU1800   AU        0.500714    0.750714    0.393571     0.007504
PD1801   PD        0.536429    0.715000    0.393571     0.005394
PD1802   PD        0.536429    0.750714    0.357857     0.005394
PD1803   PD        0.572143    0.715000    0.357857     0.005394
AU1804   AU        0.572143    0.750714    0.393571     0.007504
PD1805   PD        0.607857    0.715000    0.393571     0.005394
PD1806   PD        0.607857    0.750714    0.357857     0.005394
PD1807   PD        0.643571    0.715000    0.357857     0.005394
AU1808   AU        0.643571    0.750714    0.393571     0.007504
AU1809   AU        0.679286    0.715000    0.393571     0.007504
AU1810   AU        0.679286    0.750714    0.357857     0.007504
AU1811   AU        0.715000    0.715000    0.357857     0.007504
AU1812   AU        0.715000    0.750714    0.393571     0.007504
AU1813   AU        0.750714    0.715000    0.393571     0.007504
PD1814   PD        0.179286    0.786429    0.393571     0.005394
AU1815   AU        0.215000    0.786429    0.357857     0.007504
PD1816   PD        0.250714    0.786429    0.393571     0.005394
AU1817   AU        0.250714    0.822143    0.357857     0.007504
PD1818   PD        0.286429    0.786429    0.357857     0.005394
AU1819   AU        0.286429    0.822143    0.393571     0.007504
AU1820   AU        0.322143    0.786429    0.393571     0.007504
PD1821   PD        0.322143    0.822143    0.357857     0.005394
PD1822   PD        0.357857    0.786429    0.357857     0.005394
PD1823   PD        0.357857    0.822143    0.393571     0.005394
AU1824   AU        0.393571    0.786429    0.393571     0.007504
AU1825   AU        0.393571    0.822143    0.357857     0.007504
PD1826   PD        0.429286    0.786429    0.357857     0.005394
AU1827   AU        0.429286    0.822143    0.393571     0.007504
PD1828   PD        0.465000    0.786429    0.393571     0.005394
PD1829   PD        0.465000    0.822143    0.357857     0.005394
PD1830   PD        0.500714    0.786429    0.357857     0.005394
PD1831   PD        0.500714    0.822143    0.393571     0.005394
PD1832   PD        0.536429    0.786429    0.393571     0.005394
AU1833   AU        0.536429    0.822143    0.357857     0.007504
PD1834   PD        0.572143    0.786429    0.357857     0.005394
AU1835   AU        0.572143    0.822143    0.393571     0.007504
AU1836   AU        0.607857    0.786429    0.393571     0.007504
PD1837   PD        0.607857    0.822143    0.357857     0.005394
AU1838   AU        0.643571    0.786429    0.357857     0.007504
PD1839   PD        0.679286    0.786429    0.393571     0.005394
PD1840   PD        0.393571    0.857857    0.393571     0.005394
AU1841   AU        0.429286    0.857857    0.357857     0.007504
PD1842   PD        0.465000    0.857857    0.393571     0.005394
AU1843   AU        0.250714    0.036429    0.429286     0.007504
PD1844   PD        0.286429    0.036429    0.465000     0.005394
PD1845   PD        0.322143    0.036429    0.429286     0.005394
AU1846   AU        0.357857    0.000714    0.429286     0.007504
PD1847   PD        0.357857    0.036429    0.465000     0.005394
AU1848   AU        0.393571    0.000714    0.465000     0.007504
AU1849   AU        0.393571    0.036429    0.429286     0.007504
AU1850   AU        0.429286    0.000714    0.429286     0.007504
AU1851   AU        0.429286    0.036429    0.465000     0.007504
AU1852   AU        0.465000    0.000714    0.465000     0.007504
PD1853   PD        0.465000    0.036429    0.429286     0.005394
PD1854   PD        0.500714    0.000714    0.429286     0.005394
PD1855   PD        0.500714    0.036429    0.465000     0.005394
PD1856   PD        0.536429    0.036429    0.429286     0.005394
AU1857   AU        0.572143    0.036429    0.465000     0.007504
AU1858   AU        0.607857    0.036429    0.429286     0.007504
PD1859   PD        0.143571    0.107857    0.465000     0.005394
PD1860   PD        0.179286    0.072143    0.465000     0.005394
PD1861   PD        0.179286    0.107857    0.429286     0.005394
PD1862   PD        0.215000    0.072143    0.429286     0.005394
AU1863   AU        0.215000    0.107857    0.465000     0.007504
PD1864   PD        0.250714    0.072143    0.465000     0.005394
AU1865   AU        0.250714    0.107857    0.429286     0.007504
AU1866   AU        0.286429    0.072143    0.429286     0.007504
PD1867   PD        0.286429    0.107857    0.465000     0.005394
PD1868   PD        0.322143    0.072143    0.465000     0.005394
AU1869   AU        0.322143    0.107857    0.429286     0.007504
AU1870   AU        0.357857    0.072143    0.429286     0.007504
PD1871   PD        0.357857    0.107857    0.465000     0.005394
PD1872   PD        0.393571    0.072143    0.465000     0.005394
PD1873   PD        0.393571    0.107857    0.429286     0.005394
PD1874   PD        0.429286    0.072143    0.429286     0.005394
AU1875   AU        0.429286    0.107857    0.465000     0.007504
AU1876   AU        0.465000    0.072143    0.465000     0.007504
PD1877   PD        0.465000    0.107857    0.429286     0.005394
AU1878   AU        0.500714    0.072143    0.429286     0.007504
AU1879   AU        0.500714    0.107857    0.465000     0.007504
AU1880   AU        0.536429    0.072143    0.465000     0.007504
PD1881   PD        0.536429    0.107857    0.429286     0.005394
PD1882   PD        0.572143    0.072143    0.429286     0.005394
AU1883   AU        0.572143    0.107857    0.465000     0.007504
PD1884   PD        0.607857    0.072143    0.465000     0.005394
PD1885   PD        0.607857    0.107857    0.429286     0.005394
PD1886   PD        0.643571    0.072143    0.429286     0.005394
PD1887   PD        0.643571    0.107857    0.465000     0.005394
PD1888   PD        0.679286    0.072143    0.465000     0.005394
AU1889   AU        0.679286    0.107857    0.429286     0.007504
AU1890   AU        0.715000    0.107857    0.465000     0.007504
PD1891   PD        0.072143    0.179286    0.465000     0.005394
PD1892   PD        0.107857    0.143571    0.465000     0.005394
PD1893   PD        0.107857    0.179286    0.429286     0.005394
AU1894   AU        0.143571    0.143571    0.429286     0.007504
AU1895   AU        0.143571    0.179286    0.465000     0.007504
PD1896   PD        0.179286    0.143571    0.465000     0.005394
AU1897   AU        0.179286    0.179286    0.429286     0.007504
PD1898   PD        0.215000    0.143571    0.429286     0.005394
PD1899   PD        0.215000    0.179286    0.465000     0.005394
PD1900   PD        0.250714    0.143571    0.465000     0.005394
PD1901   PD        0.250714    0.179286    0.429286     0.005394
PD1902   PD        0.286429    0.143571    0.429286     0.005394
PD1903   PD        0.286429    0.179286    0.465000     0.005394
AU1904   AU        0.322143    0.143571    0.465000     0.007504
PD1905   PD        0.322143    0.179286    0.429286     0.005394
AU1906   AU        0.357857    0.143571    0.429286     0.007504
PD1907   PD        0.357857    0.179286    0.465000     0.005394
AU1908   AU        0.393571    0.143571    0.465000     0.007504
AU1909   AU        0.393571    0.179286    0.429286     0.007504
AU1910   AU        0.429286    0.143571    0.429286     0.007504
AU1911   AU        0.429286    0.179286    0.465000     0.007504
AU1912   AU        0.465000    0.143571    0.465000     0.007504
AU1913   AU        0.465000    0.179286    0.429286     0.007504
AU1914   AU        0.500714    0.143571    0.429286     0.007504
AU1915   AU        0.500714    0.179286    0.465000     0.007504
PD1916   PD        0.536429    0.143571    0.465000     0.005394
PD1917   PD        0.536429    0.179286    0.429286     0.005394
PD1918   PD        0.572143    0.143571    0.429286     0.005394
AU1919   AU        0.572143    0.179286    0.465000     0.007504
PD1920   PD        0.607857    0.143571    0.465000     0.005394
PD1921   PD        0.607857    0.179286    0.429286     0.005394
AU1922   AU        0.643571    0.143571    0.429286     0.007504
PD1923   PD        0.643571    0.179286    0.465000     0.005394
AU1924   AU        0.679286    0.143571    0.465000     0.007504
PD1925   PD        0.679286    0.179286    0.429286     0.005394
AU1926   AU        0.715000    0.143571    0.429286     0.007504
PD1927   PD        0.715000    0.179286    0.465000     0.005394
PD1928   PD        0.750714    0.143571    0.465000     0.005394
PD1929   PD        0.750714    0.179286    0.429286     0.005394
AU1930   AU        0.786429    0.179286    0.465000     0.007504
AU1931   AU        0.036429    0.250714    0.429286     0.007504
AU1932   AU        0.072143    0.215000    0.429286     0.007504
PD1933   PD        0.072143    0.250714    0.465000     0.005394
AU1934   AU        0.107857    0.215000    0.465000     0.007504
PD1935   PD        0.107857    0.250714    0.429286     0.005394
AU1936   AU        0.143571    0.215000    0.429286     0.007504
PD1937   PD        0.143571    0.250714    0.465000     0.005394
PD1938   PD        0.179286    0.215000    0.465000     0.005394
AU1939   AU        0.179286    0.250714    0.429286     0.007504
AU1940   AU        0.215000    0.215000    0.429286     0.007504
PD1941   PD        0.215000    0.250714    0.465000     0.005394
AU1942   AU        0.250714    0.215000    0.465000     0.007504
PD1943   PD        0.250714    0.250714    0.429286     0.005394
PD1944   PD        0.286429    0.215000    0.429286     0.005394
AU1945   AU        0.286429    0.250714    0.465000     0.007504
AU1946   AU        0.322143    0.215000    0.465000     0.007504
PD1947   PD        0.322143    0.250714    0.429286     0.005394
AU1948   AU        0.357857    0.215000    0.429286     0.007504
AU1949   AU        0.357857    0.250714    0.465000     0.007504
AU1950   AU        0.393571    0.215000    0.465000     0.007504
PD1951   PD        0.393571    0.250714    0.429286     0.005394
AU1952   AU        0.429286    0.215000    0.429286     0.007504
PD1953   PD        0.429286    0.250714    0.465000     0.005394
PD1954   PD        0.465000    0.215000    0.465000     0.005394
PD1955   PD        0.465000    0.250714    0.429286     0.005394
PD1956   PD        0.500714    0.215000    0.429286     0.005394
PD1957   PD        0.500714    0.250714    0.465000     0.005394
AU1958   AU        0.536429    0.215000    0.465000     0.007504
PD1959   PD        0.536429    0.250714    0.429286     0.005394
AU1960   AU        0.572143    0.215000    0.429286     0.007504
AU1961   AU        0.572143    0.250714    0.465000     0.007504
PD1962   PD        0.607857    0.215000    0.465000     0.005394
AU1963   AU        0.607857    0.250714    0.429286     0.007504
PD1964   PD        0.643571    0.215000    0.429286     0.005394
AU1965   AU        0.643571    0.250714    0.465000     0.007504
PD1966   PD        0.679286    0.215000    0.465000     0.005394
PD1967   PD        0.679286    0.250714    0.429286     0.005394
AU1968   AU        0.715000    0.215000    0.429286     0.007504
PD1969   PD        0.715000    0.250714    0.465000     0.005394
PD1970   PD        0.750714    0.215000    0.465000     0.005394
PD1971   PD        0.750714    0.250714    0.429286     0.005394
AU1972   AU        0.786429    0.215000    0.429286     0.007504
PD1973   PD        0.786429    0.250714    0.465000     0.005394
AU1974   AU        0.822143    0.250714    0.429286     0.007504
AU1975   AU        0.036429    0.286429    0.465000     0.007504
AU1976   AU        0.036429    0.322143    0.429286     0.007504
AU1977   AU        0.072143    0.286429    0.429286     0.007504
PD1978   PD        0.072143    0.322143    0.465000     0.005394
AU1979   AU        0.107857    0.286429    0.465000     0.007504
PD1980   PD        0.107857    0.322143    0.429286     0.005394
PD1981   PD        0.143571    0.286429    0.429286     0.005394
AU1982   AU        0.143571    0.322143    0.465000     0.007504
AU1983   AU        0.179286    0.286429    0.465000     0.007504
AU1984   AU        0.179286    0.322143    0.429286     0.007504
PD1985   PD        0.215000    0.286429    0.429286     0.005394
PD1986   PD        0.215000    0.322143    0.465000     0.005394
PD1987   PD        0.250714    0.286429    0.465000     0.005394
AU1988   AU        0.250714    0.322143    0.429286     0.007504
AU1989   AU        0.286429    0.286429    0.429286     0.007504
PD1990   PD        0.286429    0.322143    0.465000     0.005394
PD1991   PD        0.322143    0.286429    0.465000     0.005394
AU1992   AU        0.322143    0.322143    0.429286     0.007504
AU1993   AU        0.357857    0.286429    0.429286     0.007504
AU1994   AU        0.357857    0.322143    0.465000     0.007504
AU1995   AU        0.393571    0.286429    0.465000     0.007504
AU1996   AU        0.393571    0.322143    0.429286     0.007504
PD1997   PD        0.429286    0.286429    0.429286     0.005394
AU1998   AU        0.429286    0.322143    0.465000     0.007504
AU1999   AU        0.465000    0.286429    0.465000     0.007504
PD2000   PD        0.465000    0.322143    0.429286     0.005394
AU2001   AU        0.500714    0.286429    0.429286     0.007504
PD2002   PD        0.500714    0.322143    0.465000     0.005394
AU2003   AU        0.536429    0.286429    0.465000     0.007504
AU2004   AU        0.536429    0.322143    0.429286     0.007504
AU2005   AU        0.572143    0.286429    0.429286     0.007504
PD2006   PD        0.572143    0.322143    0.465000     0.005394
AU2007   AU        0.607857    0.286429    0.465000     0.007504
AU2008   AU        0.607857    0.322143    0.429286     0.007504
PD2009   PD        0.643571    0.286429    0.429286     0.005394
PD2010   PD        0.643571    0.322143    0.465000     0.005394
AU2011   AU        0.679286    0.286429    0.465000     0.007504
PD2012   PD        0.679286    0.322143    0.429286     0.005394
PD2013   PD        0.715000    0.286429    0.429286     0.005394
AU2014   AU        0.715000    0.322143    0.465000     0.007504
PD2015   PD        0.750714    0.286429    0.465000     0.005394
AU2016   AU        0.750714    0.322143    0.429286     0.007504
AU2017   AU        0.786429    0.286429    0.429286     0.007504
PD2018   PD        0.786429    0.322143    0.465000     0.005394
AU2019   AU        0.822143    0.286429    0.465000     0.007504
AU2020   AU        0.822143    0.322143    0.429286     0.007504
PD2021   PD        0.000714    0.357857    0.429286     0.005394
PD2022   PD        0.000714    0.393571    0.465000     0.005394
PD2023   PD        0.036429    0.357857    0.465000     0.005394
PD2024   PD        0.036429    0.393571    0.429286     0.005394
AU2025   AU        0.072143    0.357857    0.429286     0.007504
AU2026   AU        0.072143    0.393571    0.465000     0.007504
PD2027   PD        0.107857    0.357857    0.465000     0.005394
AU2028   AU        0.107857    0.393571    0.429286     0.007504
AU2029   AU        0.143571    0.357857    0.429286     0.007504
AU2030   AU        0.143571    0.393571    0.465000     0.007504
AU2031   AU        0.179286    0.357857    0.465000     0.007504
AU2032   AU        0.179286    0.393571    0.429286     0.007504
PD2033   PD        0.215000    0.357857    0.429286     0.005394
PD2034   PD        0.215000    0.393571    0.465000     0.005394
PD2035   PD        0.250714    0.357857    0.465000     0.005394
PD2036   PD        0.250714    0.393571    0.429286     0.005394
AU2037   AU        0.286429    0.357857    0.429286     0.007504
AU2038   AU        0.286429    0.393571    0.465000     0.007504
AU2039   AU        0.322143    0.357857    0.465000     0.007504
PD2040   PD        0.322143    0.393571    0.429286     0.005394
AU2041   AU        0.357857    0.357857    0.429286     0.007504
PD2042   PD        0.357857    0.393571    0.465000     0.005394
AU2043   AU        0.393571    0.357857    0.465000     0.007504
AU2044   AU        0.393571    0.393571    0.429286     0.007504
PD2045   PD        0.429286    0.357857    0.429286     0.005394
AU2046   AU        0.429286    0.393571    0.465000     0.007504
AU2047   AU        0.465000    0.357857    0.465000     0.007504
AU2048   AU        0.465000    0.393571    0.429286     0.007504
PD2049   PD        0.500714    0.357857    0.429286     0.005394
PD2050   PD        0.500714    0.393571    0.465000     0.005394
AU2051   AU        0.536429    0.357857    0.465000     0.007504
AU2052   AU        0.536429    0.393571    0.429286     0.007504
AU2053   AU        0.572143    0.357857    0.429286     0.007504
PD2054   PD        0.572143    0.393571    0.465000     0.005394
AU2055   AU        0.607857    0.357857    0.465000     0.007504
PD2056   PD        0.607857    0.393571    0.429286     0.005394
AU2057   AU        0.643571    0.357857    0.429286     0.007504
AU2058   AU        0.643571    0.393571    0.465000     0.007504
AU2059   AU        0.679286    0.357857    0.465000     0.007504
AU2060   AU        0.679286    0.393571    0.429286     0.007504
AU2061   AU        0.715000    0.357857    0.429286     0.007504
PD2062   PD        0.715000    0.393571    0.465000     0.005394
AU2063   AU        0.750714    0.357857    0.465000     0.007504
PD2064   PD        0.750714    0.393571    0.429286     0.005394
PD2065   PD        0.786429    0.357857    0.429286     0.005394
PD2066   PD        0.786429    0.393571    0.465000     0.005394
PD2067   PD        0.822143    0.357857    0.465000     0.005394
AU2068   AU        0.822143    0.393571    0.429286     0.007504
AU2069   AU        0.857857    0.357857    0.429286     0.007504
AU2070   AU        0.857857    0.393571    0.465000     0.007504
PD2071   PD        0.000714    0.429286    0.429286     0.005394
AU2072   AU        0.000714    0.465000    0.465000     0.007504
PD2073   PD        0.036429    0.429286    0.465000     0.005394
PD2074   PD        0.036429    0.465000    0.429286     0.005394
AU2075   AU        0.072143    0.429286    0.429286     0.007504
PD2076   PD        0.072143    0.465000    0.465000     0.005394
AU2077   AU        0.107857    0.429286    0.465000     0.007504
AU2078   AU        0.107857    0.465000    0.429286     0.007504
PD2079   PD        0.143571    0.429286    0.429286     0.005394
AU2080   AU        0.143571    0.465000    0.465000     0.007504
AU2081   AU        0.179286    0.429286    0.465000     0.007504
AU2082   AU        0.179286    0.465000    0.429286     0.007504
PD2083   PD        0.215000    0.429286    0.429286     0.005394
PD2084   PD        0.215000    0.465000    0.465000     0.005394
AU2085   AU        0.250714    0.429286    0.465000     0.007504
PD2086   PD        0.250714    0.465000    0.429286     0.005394
PD2087   PD        0.286429    0.429286    0.429286     0.005394
AU2088   AU        0.286429    0.465000    0.465000     0.007504
PD2089   PD        0.322143    0.429286    0.465000     0.005394
AU2090   AU        0.322143    0.465000    0.429286     0.007504
AU2091   AU        0.357857    0.429286    0.429286     0.007504
AU2092   AU        0.357857    0.465000    0.465000     0.007504
PD2093   PD        0.393571    0.429286    0.465000     0.005394
AU2094   AU        0.393571    0.465000    0.429286     0.007504
AU2095   AU        0.429286    0.429286    0.429286     0.007504
AU2096   AU        0.429286    0.465000    0.465000     0.007504
AU2097   AU        0.465000    0.429286    0.465000     0.007504
AU2098   AU        0.465000    0.465000    0.429286     0.007504
PD2099   PD        0.500714    0.429286    0.429286     0.005394
AU2100   AU        0.500714    0.465000    0.465000     0.007504
AU2101   AU        0.536429    0.429286    0.465000     0.007504
AU2102   AU        0.536429    0.465000    0.429286     0.007504
AU2103   AU        0.572143    0.429286    0.429286     0.007504
PD2104   PD        0.572143    0.465000    0.465000     0.005394
PD2105   PD        0.607857    0.429286    0.465000     0.005394
PD2106   PD        0.607857    0.465000    0.429286     0.005394
AU2107   AU        0.643571    0.429286    0.429286     0.007504
PD2108   PD        0.643571    0.465000    0.465000     0.005394
AU2109   AU        0.679286    0.429286    0.465000     0.007504
AU2110   AU        0.679286    0.465000    0.429286     0.007504
AU2111   AU        0.715000    0.429286    0.429286     0.007504
AU2112   AU        0.715000    0.465000    0.465000     0.007504
PD2113   PD        0.750714    0.429286    0.465000     0.005394
PD2114   PD        0.750714    0.465000    0.429286     0.005394
AU2115   AU        0.786429    0.429286    0.429286     0.007504
PD2116   PD        0.786429    0.465000    0.465000     0.005394
PD2117   PD        0.822143    0.429286    0.465000     0.005394
PD2118   PD        0.822143    0.465000    0.429286     0.005394
AU2119   AU        0.857857    0.429286    0.429286     0.007504
AU2120   AU        0.857857    0.465000    0.465000     0.007504
PD2121   PD        0.000714    0.500714    0.429286     0.005394
AU2122   AU        0.036429    0.500714    0.465000     0.007504
PD2123   PD        0.036429    0.536429    0.429286     0.005394
AU2124   AU        0.072143    0.500714    0.429286     0.007504
PD2125   PD        0.072143    0.536429    0.465000     0.005394
PD2126   PD        0.107857    0.500714    0.465000     0.005394
PD2127   PD        0.107857    0.536429    0.429286     0.005394
AU2128   AU        0.143571    0.500714    0.429286     0.007504
PD2129   PD        0.143571    0.536429    0.465000     0.005394
PD2130   PD        0.179286    0.500714    0.465000     0.005394
AU2131   AU        0.179286    0.536429    0.429286     0.007504
PD2132   PD        0.215000    0.500714    0.429286     0.005394
PD2133   PD        0.215000    0.536429    0.465000     0.005394
AU2134   AU        0.250714    0.500714    0.465000     0.007504
PD2135   PD        0.250714    0.536429    0.429286     0.005394
AU2136   AU        0.286429    0.500714    0.429286     0.007504
AU2137   AU        0.286429    0.536429    0.465000     0.007504
AU2138   AU        0.322143    0.500714    0.465000     0.007504
PD2139   PD        0.322143    0.536429    0.429286     0.005394
PD2140   PD        0.357857    0.500714    0.429286     0.005394
AU2141   AU        0.357857    0.536429    0.465000     0.007504
AU2142   AU        0.393571    0.500714    0.465000     0.007504
PD2143   PD        0.393571    0.536429    0.429286     0.005394
PD2144   PD        0.429286    0.500714    0.429286     0.005394
AU2145   AU        0.429286    0.536429    0.465000     0.007504
PD2146   PD        0.465000    0.500714    0.465000     0.005394
PD2147   PD        0.465000    0.536429    0.429286     0.005394
PD2148   PD        0.500714    0.500714    0.429286     0.005394
AU2149   AU        0.500714    0.536429    0.465000     0.007504
AU2150   AU        0.536429    0.500714    0.465000     0.007504
PD2151   PD        0.536429    0.536429    0.429286     0.005394
AU2152   AU        0.572143    0.500714    0.429286     0.007504
PD2153   PD        0.572143    0.536429    0.465000     0.005394
AU2154   AU        0.607857    0.500714    0.465000     0.007504
PD2155   PD        0.607857    0.536429    0.429286     0.005394
PD2156   PD        0.643571    0.500714    0.429286     0.005394
AU2157   AU        0.643571    0.536429    0.465000     0.007504
PD2158   PD        0.679286    0.500714    0.465000     0.005394
PD2159   PD        0.679286    0.536429    0.429286     0.005394
AU2160   AU        0.715000    0.500714    0.429286     0.007504
PD2161   PD        0.715000    0.536429    0.465000     0.005394
PD2162   PD        0.750714    0.500714    0.465000     0.005394
PD2163   PD        0.750714    0.536429    0.429286     0.005394
AU2164   AU        0.786429    0.500714    0.429286     0.007504
AU2165   AU        0.786429    0.536429    0.465000     0.007504
AU2166   AU        0.822143    0.500714    0.465000     0.007504
PD2167   PD        0.822143    0.536429    0.429286     0.005394
PD2168   PD        0.857857    0.500714    0.429286     0.005394
PD2169   PD        0.036429    0.572143    0.465000     0.005394
AU2170   AU        0.036429    0.607857    0.429286     0.007504
AU2171   AU        0.072143    0.572143    0.429286     0.007504
PD2172   PD        0.072143    0.607857    0.465000     0.005394
AU2173   AU        0.107857    0.572143    0.465000     0.007504
AU2174   AU        0.107857    0.607857    0.429286     0.007504
PD2175   PD        0.143571    0.572143    0.429286     0.005394
PD2176   PD        0.143571    0.607857    0.465000     0.005394
AU2177   AU        0.179286    0.572143    0.465000     0.007504
AU2178   AU        0.179286    0.607857    0.429286     0.007504
PD2179   PD        0.215000    0.572143    0.429286     0.005394
AU2180   AU        0.215000    0.607857    0.465000     0.007504
PD2181   PD        0.250714    0.572143    0.465000     0.005394
AU2182   AU        0.250714    0.607857    0.429286     0.007504
AU2183   AU        0.286429    0.572143    0.429286     0.007504
PD2184   PD        0.286429    0.607857    0.465000     0.005394
PD2185   PD        0.322143    0.572143    0.465000     0.005394
PD2186   PD        0.322143    0.607857    0.429286     0.005394
PD2187   PD        0.357857    0.572143    0.429286     0.005394
AU2188   AU        0.357857    0.607857    0.465000     0.007504
PD2189   PD        0.393571    0.572143    0.465000     0.005394
AU2190   AU        0.393571    0.607857    0.429286     0.007504
AU2191   AU        0.429286    0.572143    0.429286     0.007504
PD2192   PD        0.429286    0.607857    0.465000     0.005394
PD2193   PD        0.465000    0.572143    0.465000     0.005394
PD2194   PD        0.465000    0.607857    0.429286     0.005394
AU2195   AU        0.500714    0.572143    0.429286     0.007504
AU2196   AU        0.500714    0.607857    0.465000     0.007504
PD2197   PD        0.536429    0.572143    0.465000     0.005394
AU2198   AU        0.536429    0.607857    0.429286     0.007504
PD2199   PD        0.572143    0.572143    0.429286     0.005394
PD2200   PD        0.572143    0.607857    0.465000     0.005394
PD2201   PD        0.607857    0.572143    0.465000     0.005394
AU2202   AU        0.607857    0.607857    0.429286     0.007504
AU2203   AU        0.643571    0.572143    0.429286     0.007504
AU2204   AU        0.643571    0.607857    0.465000     0.007504
AU2205   AU        0.679286    0.572143    0.465000     0.007504
PD2206   PD        0.679286    0.607857    0.429286     0.005394
PD2207   PD        0.715000    0.572143    0.429286     0.005394
PD2208   PD        0.715000    0.607857    0.465000     0.005394
AU2209   AU        0.750714    0.572143    0.465000     0.007504
AU2210   AU        0.750714    0.607857    0.429286     0.007504
AU2211   AU        0.786429    0.572143    0.429286     0.007504
PD2212   PD        0.786429    0.607857    0.465000     0.005394
AU2213   AU        0.822143    0.572143    0.465000     0.007504
AU2214   AU        0.822143    0.607857    0.429286     0.007504
PD2215   PD        0.072143    0.643571    0.429286     0.005394
PD2216   PD        0.072143    0.679286    0.465000     0.005394
AU2217   AU        0.107857    0.643571    0.465000     0.007504
AU2218   AU        0.107857    0.679286    0.429286     0.007504
AU2219   AU        0.143571    0.643571    0.429286     0.007504
PD2220   PD        0.143571    0.679286    0.465000     0.005394
AU2221   AU        0.179286    0.643571    0.465000     0.007504
PD2222   PD        0.179286    0.679286    0.429286     0.005394
AU2223   AU        0.215000    0.643571    0.429286     0.007504
PD2224   PD        0.215000    0.679286    0.465000     0.005394
PD2225   PD        0.250714    0.643571    0.465000     0.005394
PD2226   PD        0.250714    0.679286    0.429286     0.005394
PD2227   PD        0.286429    0.643571    0.429286     0.005394
AU2228   AU        0.286429    0.679286    0.465000     0.007504
PD2229   PD        0.322143    0.643571    0.465000     0.005394
AU2230   AU        0.322143    0.679286    0.429286     0.007504
PD2231   PD        0.357857    0.643571    0.429286     0.005394
PD2232   PD        0.357857    0.679286    0.465000     0.005394
PD2233   PD        0.393571    0.643571    0.465000     0.005394
AU2234   AU        0.393571    0.679286    0.429286     0.007504
PD2235   PD        0.429286    0.643571    0.429286     0.005394
PD2236   PD        0.429286    0.679286    0.465000     0.005394
AU2237   AU        0.465000    0.643571    0.465000     0.007504
AU2238   AU        0.465000    0.679286    0.429286     0.007504
PD2239   PD        0.500714    0.643571    0.429286     0.005394
PD2240   PD        0.500714    0.679286    0.465000     0.005394
AU2241   AU        0.536429    0.643571    0.465000     0.007504
PD2242   PD        0.536429    0.679286    0.429286     0.005394
PD2243   PD        0.572143    0.643571    0.429286     0.005394
AU2244   AU        0.572143    0.679286    0.465000     0.007504
PD2245   PD        0.607857    0.643571    0.465000     0.005394
PD2246   PD        0.607857    0.679286    0.429286     0.005394
AU2247   AU        0.643571    0.643571    0.429286     0.007504
AU2248   AU        0.643571    0.679286    0.465000     0.007504
AU2249   AU        0.679286    0.643571    0.465000     0.007504
AU2250   AU        0.679286    0.679286    0.429286     0.007504
AU2251   AU        0.715000    0.643571    0.429286     0.007504
PD2252   PD        0.715000    0.679286    0.465000     0.005394
PD2253   PD        0.750714    0.643571    0.465000     0.005394
PD2254   PD        0.750714    0.679286    0.429286     0.005394
PD2255   PD        0.786429    0.643571    0.429286     0.005394
PD2256   PD        0.786429    0.679286    0.465000     0.005394
PD2257   PD        0.107857    0.715000    0.465000     0.005394
AU2258   AU        0.143571    0.715000    0.429286     0.007504
AU2259   AU        0.143571    0.750714    0.465000     0.007504
PD2260   PD        0.179286    0.715000    0.465000     0.005394
AU2261   AU        0.179286    0.750714    0.429286     0.007504
AU2262   AU        0.215000    0.715000    0.429286     0.007504
PD2263   PD        0.215000    0.750714    0.465000     0.005394
AU2264   AU        0.250714    0.715000    0.465000     0.007504
AU2265   AU        0.250714    0.750714    0.429286     0.007504
AU2266   AU        0.286429    0.715000    0.429286     0.007504
PD2267   PD        0.286429    0.750714    0.465000     0.005394
PD2268   PD        0.322143    0.715000    0.465000     0.005394
AU2269   AU        0.322143    0.750714    0.429286     0.007504
AU2270   AU        0.357857    0.715000    0.429286     0.007504
PD2271   PD        0.357857    0.750714    0.465000     0.005394
PD2272   PD        0.393571    0.715000    0.465000     0.005394
PD2273   PD        0.393571    0.750714    0.429286     0.005394
AU2274   AU        0.429286    0.715000    0.429286     0.007504
PD2275   PD        0.429286    0.750714    0.465000     0.005394
PD2276   PD        0.465000    0.715000    0.465000     0.005394
AU2277   AU        0.465000    0.750714    0.429286     0.007504
PD2278   PD        0.500714    0.715000    0.429286     0.005394
AU2279   AU        0.500714    0.750714    0.465000     0.007504
PD2280   PD        0.536429    0.715000    0.465000     0.005394
PD2281   PD        0.536429    0.750714    0.429286     0.005394
PD2282   PD        0.572143    0.715000    0.429286     0.005394
PD2283   PD        0.572143    0.750714    0.465000     0.005394
PD2284   PD        0.607857    0.715000    0.465000     0.005394
PD2285   PD        0.607857    0.750714    0.429286     0.005394
PD2286   PD        0.643571    0.715000    0.429286     0.005394
AU2287   AU        0.643571    0.750714    0.465000     0.007504
AU2288   AU        0.679286    0.715000    0.465000     0.007504
AU2289   AU        0.679286    0.750714    0.429286     0.007504
PD2290   PD        0.715000    0.715000    0.429286     0.005394
AU2291   AU        0.715000    0.750714    0.465000     0.007504
AU2292   AU        0.750714    0.715000    0.465000     0.007504
AU2293   AU        0.179286    0.786429    0.465000     0.007504
AU2294   AU        0.215000    0.786429    0.429286     0.007504
AU2295   AU        0.250714    0.786429    0.465000     0.007504
AU2296   AU        0.250714    0.822143    0.429286     0.007504
PD2297   PD        0.286429    0.786429    0.429286     0.005394
PD2298   PD        0.286429    0.822143    0.465000     0.005394
PD2299   PD        0.322143    0.786429    0.465000     0.005394
PD2300   PD        0.322143    0.822143    0.429286     0.005394
PD2301   PD        0.357857    0.786429    0.429286     0.005394
PD2302   PD        0.357857    0.822143    0.465000     0.005394
PD2303   PD        0.393571    0.786429    0.465000     0.005394
AU2304   AU        0.393571    0.822143    0.429286     0.007504
PD2305   PD        0.429286    0.786429    0.429286     0.005394
AU2306   AU        0.429286    0.822143    0.465000     0.007504
PD2307   PD        0.465000    0.786429    0.465000     0.005394
AU2308   AU        0.465000    0.822143    0.429286     0.007504
PD2309   PD        0.500714    0.786429    0.429286     0.005394
PD2310   PD        0.500714    0.822143    0.465000     0.005394
PD2311   PD        0.536429    0.786429    0.465000     0.005394
PD2312   PD        0.536429    0.822143    0.429286     0.005394
AU2313   AU        0.572143    0.786429    0.429286     0.007504
PD2314   PD        0.572143    0.822143    0.465000     0.005394
AU2315   AU        0.607857    0.786429    0.465000     0.007504
PD2316   PD        0.607857    0.822143    0.429286     0.005394
PD2317   PD        0.643571    0.786429    0.429286     0.005394
AU2318   AU        0.679286    0.786429    0.465000     0.007504
PD2319   PD        0.357857    0.857857    0.429286     0.005394
AU2320   AU        0.393571    0.857857    0.465000     0.007504
PD2321   PD        0.429286    0.857857    0.429286     0.005394
AU2322   AU        0.465000    0.857857    0.465000     0.007504
AU2323   AU        0.500714    0.857857    0.429286     0.007504
AU2324   AU        0.250714    0.036429    0.500714     0.007504
AU2325   AU        0.286429    0.036429    0.536429     0.007504
AU2326   AU        0.322143    0.036429    0.500714     0.007504
AU2327   AU        0.357857    0.036429    0.536429     0.007504
AU2328   AU        0.393571    0.036429    0.500714     0.007504
AU2329   AU        0.429286    0.000714    0.500714     0.007504
PD2330   PD        0.429286    0.036429    0.536429     0.005394
PD2331   PD        0.465000    0.036429    0.500714     0.005394
PD2332   PD        0.500714    0.036429    0.536429     0.005394
PD2333   PD        0.536429    0.036429    0.500714     0.005394
PD2334   PD        0.572143    0.036429    0.536429     0.005394
AU2335   AU        0.607857    0.036429    0.500714     0.007504
AU2336   AU        0.179286    0.107857    0.500714     0.007504
PD2337   PD        0.215000    0.072143    0.500714     0.005394
PD2338   PD        0.215000    0.107857    0.536429     0.005394
PD2339   PD        0.250714    0.072143    0.536429     0.005394
PD2340   PD        0.250714    0.107857    0.500714     0.005394
AU2341   AU        0.286429    0.072143    0.500714     0.007504
PD2342   PD        0.286429    0.107857    0.536429     0.005394
PD2343   PD        0.322143    0.072143    0.536429     0.005394
AU2344   AU        0.322143    0.107857    0.500714     0.007504
PD2345   PD        0.357857    0.072143    0.500714     0.005394
AU2346   AU        0.357857    0.107857    0.536429     0.007504
PD2347   PD        0.393571    0.072143    0.536429     0.005394
PD2348   PD        0.393571    0.107857    0.500714     0.005394
AU2349   AU        0.429286    0.072143    0.500714     0.007504
PD2350   PD        0.429286    0.107857    0.536429     0.005394
AU2351   AU        0.465000    0.072143    0.536429     0.007504
AU2352   AU        0.465000    0.107857    0.500714     0.007504
AU2353   AU        0.500714    0.072143    0.500714     0.007504
AU2354   AU        0.500714    0.107857    0.536429     0.007504
AU2355   AU        0.536429    0.072143    0.536429     0.007504
PD2356   PD        0.536429    0.107857    0.500714     0.005394
AU2357   AU        0.572143    0.072143    0.500714     0.007504
PD2358   PD        0.572143    0.107857    0.536429     0.005394
AU2359   AU        0.607857    0.072143    0.536429     0.007504
AU2360   AU        0.607857    0.107857    0.500714     0.007504
AU2361   AU        0.643571    0.072143    0.500714     0.007504
AU2362   AU        0.643571    0.107857    0.536429     0.007504
AU2363   AU        0.679286    0.107857    0.500714     0.007504
PD2364   PD        0.107857    0.179286    0.500714     0.005394
AU2365   AU        0.143571    0.143571    0.500714     0.007504
AU2366   AU        0.143571    0.179286    0.536429     0.007504
PD2367   PD        0.179286    0.143571    0.536429     0.005394
AU2368   AU        0.179286    0.179286    0.500714     0.007504
PD2369   PD        0.215000    0.143571    0.500714     0.005394
PD2370   PD        0.215000    0.179286    0.536429     0.005394
PD2371   PD        0.250714    0.143571    0.536429     0.005394
PD2372   PD        0.250714    0.179286    0.500714     0.005394
PD2373   PD        0.286429    0.143571    0.500714     0.005394
PD2374   PD        0.286429    0.179286    0.536429     0.005394
PD2375   PD        0.322143    0.143571    0.536429     0.005394
AU2376   AU        0.322143    0.179286    0.500714     0.007504
PD2377   PD        0.357857    0.143571    0.500714     0.005394
AU2378   AU        0.357857    0.179286    0.536429     0.007504
PD2379   PD        0.393571    0.143571    0.536429     0.005394
PD2380   PD        0.393571    0.179286    0.500714     0.005394
PD2381   PD        0.429286    0.143571    0.500714     0.005394
AU2382   AU        0.429286    0.179286    0.536429     0.007504
AU2383   AU        0.465000    0.143571    0.536429     0.007504
AU2384   AU        0.465000    0.179286    0.500714     0.007504
AU2385   AU        0.500714    0.143571    0.500714     0.007504
PD2386   PD        0.500714    0.179286    0.536429     0.005394
PD2387   PD        0.536429    0.143571    0.536429     0.005394
PD2388   PD        0.536429    0.179286    0.500714     0.005394
AU2389   AU        0.572143    0.143571    0.500714     0.007504
PD2390   PD        0.572143    0.179286    0.536429     0.005394
AU2391   AU        0.607857    0.143571    0.536429     0.007504
PD2392   PD        0.607857    0.179286    0.500714     0.005394
AU2393   AU        0.643571    0.143571    0.500714     0.007504
PD2394   PD        0.643571    0.179286    0.536429     0.005394
PD2395   PD        0.679286    0.143571    0.536429     0.005394
PD2396   PD        0.679286    0.179286    0.500714     0.005394
AU2397   AU        0.715000    0.143571    0.500714     0.007504
AU2398   AU        0.715000    0.179286    0.536429     0.007504
PD2399   PD        0.750714    0.179286    0.500714     0.005394
PD2400   PD        0.036429    0.250714    0.500714     0.005394
PD2401   PD        0.072143    0.215000    0.500714     0.005394
AU2402   AU        0.072143    0.250714    0.536429     0.007504
AU2403   AU        0.107857    0.215000    0.536429     0.007504
AU2404   AU        0.107857    0.250714    0.500714     0.007504
AU2405   AU        0.143571    0.215000    0.500714     0.007504
PD2406   PD        0.143571    0.250714    0.536429     0.005394
AU2407   AU        0.179286    0.215000    0.536429     0.007504
AU2408   AU        0.179286    0.250714    0.500714     0.007504
AU2409   AU        0.215000    0.215000    0.500714     0.007504
AU2410   AU        0.215000    0.250714    0.536429     0.007504
AU2411   AU        0.250714    0.215000    0.536429     0.007504
AU2412   AU        0.250714    0.250714    0.500714     0.007504
AU2413   AU        0.286429    0.215000    0.500714     0.007504
AU2414   AU        0.286429    0.250714    0.536429     0.007504
AU2415   AU        0.322143    0.215000    0.536429     0.007504
AU2416   AU        0.322143    0.250714    0.500714     0.007504
PD2417   PD        0.357857    0.215000    0.500714     0.005394
PD2418   PD        0.357857    0.250714    0.536429     0.005394
PD2419   PD        0.393571    0.215000    0.536429     0.005394
AU2420   AU        0.393571    0.250714    0.500714     0.007504
AU2421   AU        0.429286    0.215000    0.500714     0.007504
PD2422   PD        0.429286    0.250714    0.536429     0.005394
AU2423   AU        0.465000    0.215000    0.536429     0.007504
PD2424   PD        0.465000    0.250714    0.500714     0.005394
PD2425   PD        0.500714    0.215000    0.500714     0.005394
PD2426   PD        0.500714    0.250714    0.536429     0.005394
PD2427   PD        0.536429    0.215000    0.536429     0.005394
AU2428   AU        0.536429    0.250714    0.500714     0.007504
AU2429   AU        0.572143    0.215000    0.500714     0.007504
PD2430   PD        0.572143    0.250714    0.536429     0.005394
PD2431   PD        0.607857    0.215000    0.536429     0.005394
PD2432   PD        0.607857    0.250714    0.500714     0.005394
AU2433   AU        0.643571    0.215000    0.500714     0.007504
PD2434   PD        0.643571    0.250714    0.536429     0.005394
PD2435   PD        0.679286    0.215000    0.536429     0.005394
AU2436   AU        0.679286    0.250714    0.500714     0.007504
PD2437   PD        0.715000    0.215000    0.500714     0.005394
AU2438   AU        0.715000    0.250714    0.536429     0.007504
AU2439   AU        0.750714    0.215000    0.536429     0.007504
AU2440   AU        0.750714    0.250714    0.500714     0.007504
PD2441   PD        0.786429    0.215000    0.500714     0.005394
PD2442   PD        0.786429    0.250714    0.536429     0.005394
AU2443   AU        0.822143    0.250714    0.500714     0.007504
PD2444   PD        0.036429    0.286429    0.536429     0.005394
AU2445   AU        0.036429    0.322143    0.500714     0.007504
AU2446   AU        0.072143    0.286429    0.500714     0.007504
AU2447   AU        0.072143    0.322143    0.536429     0.007504
PD2448   PD        0.107857    0.286429    0.536429     0.005394
PD2449   PD        0.107857    0.322143    0.500714     0.005394
PD2450   PD        0.143571    0.286429    0.500714     0.005394
PD2451   PD        0.143571    0.322143    0.536429     0.005394
PD2452   PD        0.179286    0.286429    0.536429     0.005394
AU2453   AU        0.179286    0.322143    0.500714     0.007504
AU2454   AU        0.215000    0.286429    0.500714     0.007504
PD2455   PD        0.215000    0.322143    0.536429     0.005394
AU2456   AU        0.250714    0.286429    0.536429     0.007504
PD2457   PD        0.250714    0.322143    0.500714     0.005394
PD2458   PD        0.286429    0.286429    0.500714     0.005394
AU2459   AU        0.286429    0.322143    0.536429     0.007504
AU2460   AU        0.322143    0.286429    0.536429     0.007504
PD2461   PD        0.322143    0.322143    0.500714     0.005394
PD2462   PD        0.357857    0.286429    0.500714     0.005394
PD2463   PD        0.357857    0.322143    0.536429     0.005394
AU2464   AU        0.393571    0.286429    0.536429     0.007504
AU2465   AU        0.393571    0.322143    0.500714     0.007504
PD2466   PD        0.429286    0.286429    0.500714     0.005394
AU2467   AU        0.429286    0.322143    0.536429     0.007504
AU2468   AU        0.465000    0.286429    0.536429     0.007504
PD2469   PD        0.465000    0.322143    0.500714     0.005394
PD2470   PD        0.500714    0.286429    0.500714     0.005394
PD2471   PD        0.500714    0.322143    0.536429     0.005394
AU2472   AU        0.536429    0.286429    0.536429     0.007504
PD2473   PD        0.536429    0.322143    0.500714     0.005394
PD2474   PD        0.572143    0.286429    0.500714     0.005394
AU2475   AU        0.572143    0.322143    0.536429     0.007504
PD2476   PD        0.607857    0.286429    0.536429     0.005394
AU2477   AU        0.607857    0.322143    0.500714     0.007504
AU2478   AU        0.643571    0.286429    0.500714     0.007504
PD2479   PD        0.643571    0.322143    0.536429     0.005394
PD2480   PD        0.679286    0.286429    0.536429     0.005394
PD2481   PD        0.679286    0.322143    0.500714     0.005394
PD2482   PD        0.715000    0.286429    0.500714     0.005394
AU2483   AU        0.715000    0.322143    0.536429     0.007504
PD2484   PD        0.750714    0.286429    0.536429     0.005394
PD2485   PD        0.750714    0.322143    0.500714     0.005394
AU2486   AU        0.786429    0.286429    0.500714     0.007504
AU2487   AU        0.786429    0.322143    0.536429     0.007504
PD2488   PD        0.822143    0.286429    0.536429     0.005394
AU2489   AU        0.822143    0.322143    0.500714     0.007504
PD2490   PD        0.036429    0.357857    0.536429     0.005394
PD2491   PD        0.036429    0.393571    0.500714     0.005394
AU2492   AU        0.072143    0.357857    0.500714     0.007504
AU2493   AU        0.072143    0.393571    0.536429     0.007504
PD2494   PD        0.107857    0.357857    0.536429     0.005394
PD2495   PD        0.107857    0.393571    0.500714     0.005394
AU2496   AU        0.143571    0.357857    0.500714     0.007504
AU2497   AU        0.143571    0.393571    0.536429     0.007504
PD2498   PD        0.179286    0.357857    0.536429     0.005394
AU2499   AU        0.179286    0.393571    0.500714     0.007504
PD2500   PD        0.215000    0.357857    0.500714     0.005394
AU2501   AU        0.215000    0.393571    0.536429     0.007504
PD2502   PD        0.250714    0.357857    0.536429     0.005394
PD2503   PD        0.250714    0.393571    0.500714     0.005394
AU2504   AU        0.286429    0.357857    0.500714     0.007504
PD2505   PD        0.286429    0.393571    0.536429     0.005394
AU2506   AU        0.322143    0.357857    0.536429     0.007504
PD2507   PD        0.322143    0.393571    0.500714     0.005394
PD2508   PD        0.357857    0.357857    0.500714     0.005394
AU2509   AU        0.357857    0.393571    0.536429     0.007504
AU2510   AU        0.393571    0.357857    0.536429     0.007504
PD2511   PD        0.393571    0.393571    0.500714     0.005394
AU2512   AU        0.429286    0.357857    0.500714     0.007504
AU2513   AU        0.429286    0.393571    0.536429     0.007504
AU2514   AU        0.465000    0.357857    0.536429     0.007504
PD2515   PD        0.465000    0.393571    0.500714     0.005394
PD2516   PD        0.500714    0.357857    0.500714     0.005394
AU2517   AU        0.500714    0.393571    0.536429     0.007504
AU2518   AU        0.536429    0.357857    0.536429     0.007504
PD2519   PD        0.536429    0.393571    0.500714     0.005394
PD2520   PD        0.572143    0.357857    0.500714     0.005394
AU2521   AU        0.572143    0.393571    0.536429     0.007504
PD2522   PD        0.607857    0.357857    0.536429     0.005394
AU2523   AU        0.607857    0.393571    0.500714     0.007504
PD2524   PD        0.643571    0.357857    0.500714     0.005394
PD2525   PD        0.643571    0.393571    0.536429     0.005394
PD2526   PD        0.679286    0.357857    0.536429     0.005394
PD2527   PD        0.679286    0.393571    0.500714     0.005394
AU2528   AU        0.715000    0.357857    0.500714     0.007504
PD2529   PD        0.715000    0.393571    0.536429     0.005394
AU2530   AU        0.750714    0.357857    0.536429     0.007504
PD2531   PD        0.750714    0.393571    0.500714     0.005394
PD2532   PD        0.786429    0.357857    0.500714     0.005394
PD2533   PD        0.786429    0.393571    0.536429     0.005394
PD2534   PD        0.822143    0.357857    0.536429     0.005394
PD2535   PD        0.822143    0.393571    0.500714     0.005394
PD2536   PD        0.000714    0.429286    0.500714     0.005394
AU2537   AU        0.036429    0.429286    0.536429     0.007504
PD2538   PD        0.036429    0.465000    0.500714     0.005394
PD2539   PD        0.072143    0.429286    0.500714     0.005394
PD2540   PD        0.072143    0.465000    0.536429     0.005394
PD2541   PD        0.107857    0.429286    0.536429     0.005394
PD2542   PD        0.107857    0.465000    0.500714     0.005394
PD2543   PD        0.143571    0.429286    0.500714     0.005394
PD2544   PD        0.143571    0.465000    0.536429     0.005394
PD2545   PD        0.179286    0.429286    0.536429     0.005394
AU2546   AU        0.179286    0.465000    0.500714     0.007504
AU2547   AU        0.215000    0.429286    0.500714     0.007504
AU2548   AU        0.215000    0.465000    0.536429     0.007504
PD2549   PD        0.250714    0.429286    0.536429     0.005394
AU2550   AU        0.250714    0.465000    0.500714     0.007504
PD2551   PD        0.286429    0.429286    0.500714     0.005394
AU2552   AU        0.286429    0.465000    0.536429     0.007504
PD2553   PD        0.322143    0.429286    0.536429     0.005394
PD2554   PD        0.322143    0.465000    0.500714     0.005394
PD2555   PD        0.357857    0.429286    0.500714     0.005394
PD2556   PD        0.357857    0.465000    0.536429     0.005394
AU2557   AU        0.393571    0.429286    0.536429     0.007504
PD2558   PD        0.393571    0.465000    0.500714     0.005394
AU2559   AU        0.429286    0.429286    0.500714     0.007504
AU2560   AU        0.429286    0.465000    0.536429     0.007504
PD2561   PD        0.465000    0.429286    0.536429     0.005394
AU2562   AU        0.465000    0.465000    0.500714     0.007504
PD2563   PD        0.500714    0.429286    0.500714     0.005394
PD2564   PD        0.500714    0.465000    0.536429     0.005394
PD2565   PD        0.536429    0.429286    0.536429     0.005394
PD2566   PD        0.536429    0.465000    0.500714     0.005394
PD2567   PD        0.572143    0.429286    0.500714     0.005394
AU2568   AU        0.572143    0.465000    0.536429     0.007504
PD2569   PD        0.607857    0.429286    0.536429     0.005394
PD2570   PD        0.607857    0.465000    0.500714     0.005394
AU2571   AU        0.643571    0.429286    0.500714     0.007504
AU2572   AU        0.643571    0.465000    0.536429     0.007504
PD2573   PD        0.679286    0.429286    0.536429     0.005394
AU2574   AU        0.679286    0.465000    0.500714     0.007504
AU2575   AU        0.715000    0.429286    0.500714     0.007504
PD2576   PD        0.715000    0.465000    0.536429     0.005394
AU2577   AU        0.750714    0.429286    0.536429     0.007504
AU2578   AU        0.750714    0.465000    0.500714     0.007504
AU2579   AU        0.786429    0.429286    0.500714     0.007504
PD2580   PD        0.786429    0.465000    0.536429     0.005394
PD2581   PD        0.822143    0.429286    0.536429     0.005394
AU2582   AU        0.822143    0.465000    0.500714     0.007504
PD2583   PD        0.857857    0.429286    0.500714     0.005394
AU2584   AU        0.036429    0.500714    0.536429     0.007504
PD2585   PD        0.036429    0.536429    0.500714     0.005394
PD2586   PD        0.072143    0.500714    0.500714     0.005394
AU2587   AU        0.072143    0.536429    0.536429     0.007504
AU2588   AU        0.107857    0.500714    0.536429     0.007504
AU2589   AU        0.107857    0.536429    0.500714     0.007504
PD2590   PD        0.143571    0.500714    0.500714     0.005394
AU2591   AU        0.143571    0.536429    0.536429     0.007504
AU2592   AU        0.179286    0.500714    0.536429     0.007504
AU2593   AU        0.179286    0.536429    0.500714     0.007504
AU2594   AU        0.215000    0.500714    0.500714     0.007504
PD2595   PD        0.215000    0.536429    0.536429     0.005394
AU2596   AU        0.250714    0.500714    0.536429     0.007504
AU2597   AU        0.250714    0.536429    0.500714     0.007504
AU2598   AU        0.286429    0.500714    0.500714     0.007504
AU2599   AU        0.286429    0.536429    0.536429     0.007504
PD2600   PD        0.322143    0.500714    0.536429     0.005394
AU2601   AU        0.322143    0.536429    0.500714     0.007504
PD2602   PD        0.357857    0.500714    0.500714     0.005394
AU2603   AU        0.357857    0.536429    0.536429     0.007504
AU2604   AU        0.393571    0.500714    0.536429     0.007504
AU2605   AU        0.393571    0.536429    0.500714     0.007504
AU2606   AU        0.429286    0.500714    0.500714     0.007504
PD2607   PD        0.429286    0.536429    0.536429     0.005394
AU2608   AU        0.465000    0.500714    0.536429     0.007504
PD2609   PD        0.465000    0.536429    0.500714     0.005394
AU2610   AU        0.500714    0.500714    0.500714     0.007504
PD2611   PD        0.500714    0.536429    0.536429     0.005394
PD2612   PD        0.536429    0.500714    0.536429     0.005394
AU2613   AU        0.536429    0.536429    0.500714     0.007504
AU2614   AU        0.572143    0.500714    0.500714     0.007504
AU2615   AU        0.572143    0.536429    0.536429     0.007504
PD2616   PD        0.607857    0.500714    0.536429     0.005394
AU2617   AU        0.607857    0.536429    0.500714     0.007504
AU2618   AU        0.643571    0.500714    0.500714     0.007504
AU2619   AU        0.643571    0.536429    0.536429     0.007504
PD2620   PD        0.679286    0.500714    0.536429     0.005394
AU2621   AU        0.679286    0.536429    0.500714     0.007504
PD2622   PD        0.715000    0.500714    0.500714     0.005394
PD2623   PD        0.715000    0.536429    0.536429     0.005394
AU2624   AU        0.750714    0.500714    0.536429     0.007504
PD2625   PD        0.750714    0.536429    0.500714     0.005394
PD2626   PD        0.786429    0.500714    0.500714     0.005394
PD2627   PD        0.786429    0.536429    0.536429     0.005394
AU2628   AU        0.822143    0.500714    0.536429     0.007504
AU2629   AU        0.822143    0.536429    0.500714     0.007504
AU2630   AU        0.036429    0.572143    0.536429     0.007504
AU2631   AU        0.036429    0.607857    0.500714     0.007504
PD2632   PD        0.072143    0.572143    0.500714     0.005394
PD2633   PD        0.072143    0.607857    0.536429     0.005394
PD2634   PD        0.107857    0.572143    0.536429     0.005394
PD2635   PD        0.107857    0.607857    0.500714     0.005394
PD2636   PD        0.143571    0.572143    0.500714     0.005394
PD2637   PD        0.143571    0.607857    0.536429     0.005394
PD2638   PD        0.179286    0.572143    0.536429     0.005394
PD2639   PD        0.179286    0.607857    0.500714     0.005394
PD2640   PD        0.215000    0.572143    0.500714     0.005394
PD2641   PD        0.215000    0.607857    0.536429     0.005394
AU2642   AU        0.250714    0.572143    0.536429     0.007504
AU2643   AU        0.250714    0.607857    0.500714     0.007504
AU2644   AU        0.286429    0.572143    0.500714     0.007504
PD2645   PD        0.286429    0.607857    0.536429     0.005394
AU2646   AU        0.322143    0.572143    0.536429     0.007504
PD2647   PD        0.322143    0.607857    0.500714     0.005394
PD2648   PD        0.357857    0.572143    0.500714     0.005394
PD2649   PD        0.357857    0.607857    0.536429     0.005394
AU2650   AU        0.393571    0.572143    0.536429     0.007504
PD2651   PD        0.393571    0.607857    0.500714     0.005394
PD2652   PD        0.429286    0.572143    0.500714     0.005394
AU2653   AU        0.429286    0.607857    0.536429     0.007504
PD2654   PD        0.465000    0.572143    0.536429     0.005394
PD2655   PD        0.465000    0.607857    0.500714     0.005394
AU2656   AU        0.500714    0.572143    0.500714     0.007504
AU2657   AU        0.500714    0.607857    0.536429     0.007504
PD2658   PD        0.536429    0.572143    0.536429     0.005394
AU2659   AU        0.536429    0.607857    0.500714     0.007504
AU2660   AU        0.572143    0.572143    0.500714     0.007504
PD2661   PD        0.572143    0.607857    0.536429     0.005394
PD2662   PD        0.607857    0.572143    0.536429     0.005394
AU2663   AU        0.607857    0.607857    0.500714     0.007504
AU2664   AU        0.643571    0.572143    0.500714     0.007504
PD2665   PD        0.643571    0.607857    0.536429     0.005394
PD2666   PD        0.679286    0.572143    0.536429     0.005394
PD2667   PD        0.679286    0.607857    0.500714     0.005394
AU2668   AU        0.715000    0.572143    0.500714     0.007504
PD2669   PD        0.715000    0.607857    0.536429     0.005394
PD2670   PD        0.750714    0.572143    0.536429     0.005394
AU2671   AU        0.750714    0.607857    0.500714     0.007504
PD2672   PD        0.786429    0.572143    0.500714     0.005394
AU2673   AU        0.786429    0.607857    0.536429     0.007504
AU2674   AU        0.822143    0.572143    0.536429     0.007504
AU2675   AU        0.822143    0.607857    0.500714     0.007504
PD2676   PD        0.072143    0.643571    0.500714     0.005394
PD2677   PD        0.107857    0.643571    0.536429     0.005394
AU2678   AU        0.107857    0.679286    0.500714     0.007504
PD2679   PD        0.143571    0.643571    0.500714     0.005394
AU2680   AU        0.143571    0.679286    0.536429     0.007504
PD2681   PD        0.179286    0.643571    0.536429     0.005394
PD2682   PD        0.179286    0.679286    0.500714     0.005394
PD2683   PD        0.215000    0.643571    0.500714     0.005394
AU2684   AU        0.215000    0.679286    0.536429     0.007504
PD2685   PD        0.250714    0.643571    0.536429     0.005394
PD2686   PD        0.250714    0.679286    0.500714     0.005394
AU2687   AU        0.286429    0.643571    0.500714     0.007504
PD2688   PD        0.286429    0.679286    0.536429     0.005394
AU2689   AU        0.322143    0.643571    0.536429     0.007504
PD2690   PD        0.322143    0.679286    0.500714     0.005394
PD2691   PD        0.357857    0.643571    0.500714     0.005394
PD2692   PD        0.357857    0.679286    0.536429     0.005394
AU2693   AU        0.393571    0.643571    0.536429     0.007504
AU2694   AU        0.393571    0.679286    0.500714     0.007504
AU2695   AU        0.429286    0.643571    0.500714     0.007504
PD2696   PD        0.429286    0.679286    0.536429     0.005394
PD2697   PD        0.465000    0.643571    0.536429     0.005394
AU2698   AU        0.465000    0.679286    0.500714     0.007504
AU2699   AU        0.500714    0.643571    0.500714     0.007504
AU2700   AU        0.500714    0.679286    0.536429     0.007504
AU2701   AU        0.536429    0.643571    0.536429     0.007504
AU2702   AU        0.536429    0.679286    0.500714     0.007504
PD2703   PD        0.572143    0.643571    0.500714     0.005394
PD2704   PD        0.572143    0.679286    0.536429     0.005394
AU2705   AU        0.607857    0.643571    0.536429     0.007504
PD2706   PD        0.607857    0.679286    0.500714     0.005394
PD2707   PD        0.643571    0.643571    0.500714     0.005394
AU2708   AU        0.643571    0.679286    0.536429     0.007504
PD2709   PD        0.679286    0.643571    0.536429     0.005394
AU2710   AU        0.679286    0.679286    0.500714     0.007504
AU2711   AU        0.715000    0.643571    0.500714     0.007504
PD2712   PD        0.715000    0.679286    0.536429     0.005394
PD2713   PD        0.750714    0.643571    0.536429     0.005394
PD2714   PD        0.750714    0.679286    0.500714     0.005394
AU2715   AU        0.786429    0.643571    0.500714     0.007504
PD2716   PD        0.143571    0.715000    0.500714     0.005394
AU2717   AU        0.179286    0.715000    0.536429     0.007504
PD2718   PD        0.179286    0.750714    0.500714     0.005394
AU2719   AU        0.215000    0.715000    0.500714     0.007504
AU2720   AU        0.215000    0.750714    0.536429     0.007504
AU2721   AU        0.250714    0.715000    0.536429     0.007504
AU2722   AU        0.250714    0.750714    0.500714     0.007504
PD2723   PD        0.286429    0.715000    0.500714     0.005394
AU2724   AU        0.286429    0.750714    0.536429     0.007504
AU2725   AU        0.322143    0.715000    0.536429     0.007504
AU2726   AU        0.322143    0.750714    0.500714     0.007504
PD2727   PD        0.357857    0.715000    0.500714     0.005394
PD2728   PD        0.357857    0.750714    0.536429     0.005394
AU2729   AU        0.393571    0.715000    0.536429     0.007504
PD2730   PD        0.393571    0.750714    0.500714     0.005394
PD2731   PD        0.429286    0.715000    0.500714     0.005394
AU2732   AU        0.429286    0.750714    0.536429     0.007504
PD2733   PD        0.465000    0.715000    0.536429     0.005394
PD2734   PD        0.465000    0.750714    0.500714     0.005394
AU2735   AU        0.500714    0.715000    0.500714     0.007504
PD2736   PD        0.500714    0.750714    0.536429     0.005394
AU2737   AU        0.536429    0.715000    0.536429     0.007504
PD2738   PD        0.536429    0.750714    0.500714     0.005394
AU2739   AU        0.572143    0.715000    0.500714     0.007504
PD2740   PD        0.572143    0.750714    0.536429     0.005394
PD2741   PD        0.607857    0.715000    0.536429     0.005394
AU2742   AU        0.607857    0.750714    0.500714     0.007504
AU2743   AU        0.643571    0.715000    0.500714     0.007504
PD2744   PD        0.643571    0.750714    0.536429     0.005394
PD2745   PD        0.679286    0.715000    0.536429     0.005394
PD2746   PD        0.679286    0.750714    0.500714     0.005394
AU2747   AU        0.715000    0.715000    0.500714     0.007504
AU2748   AU        0.215000    0.786429    0.500714     0.007504
AU2749   AU        0.250714    0.786429    0.536429     0.007504
PD2750   PD        0.250714    0.822143    0.500714     0.005394
PD2751   PD        0.286429    0.786429    0.500714     0.005394
AU2752   AU        0.286429    0.822143    0.536429     0.007504
PD2753   PD        0.322143    0.786429    0.536429     0.005394
AU2754   AU        0.322143    0.822143    0.500714     0.007504
PD2755   PD        0.357857    0.786429    0.500714     0.005394
PD2756   PD        0.357857    0.822143    0.536429     0.005394
AU2757   AU        0.393571    0.786429    0.536429     0.007504
PD2758   PD        0.393571    0.822143    0.500714     0.005394
AU2759   AU        0.429286    0.786429    0.500714     0.007504
PD2760   PD        0.429286    0.822143    0.536429     0.005394
AU2761   AU        0.465000    0.786429    0.536429     0.007504
PD2762   PD        0.465000    0.822143    0.500714     0.005394
PD2763   PD        0.500714    0.786429    0.500714     0.005394
AU2764   AU        0.500714    0.822143    0.536429     0.007504
AU2765   AU        0.536429    0.786429    0.536429     0.007504
AU2766   AU        0.536429    0.822143    0.500714     0.007504
AU2767   AU        0.572143    0.786429    0.500714     0.007504
AU2768   AU        0.572143    0.822143    0.536429     0.007504
PD2769   PD        0.607857    0.786429    0.536429     0.005394
PD2770   PD        0.607857    0.822143    0.500714     0.005394
PD2771   PD        0.643571    0.786429    0.500714     0.005394
PD2772   PD        0.429286    0.857857    0.500714     0.005394
PD2773   PD        0.322143    0.036429    0.572143     0.005394
PD2774   PD        0.357857    0.036429    0.607857     0.005394
AU2775   AU        0.393571    0.036429    0.572143     0.007504
PD2776   PD        0.429286    0.036429    0.607857     0.005394
AU2777   AU        0.465000    0.036429    0.572143     0.007504
PD2778   PD        0.500714    0.036429    0.607857     0.005394
PD2779   PD        0.536429    0.036429    0.572143     0.005394
AU2780   AU        0.179286    0.107857    0.572143     0.007504
AU2781   AU        0.215000    0.107857    0.607857     0.007504
AU2782   AU        0.250714    0.072143    0.607857     0.007504
PD2783   PD        0.250714    0.107857    0.572143     0.005394
AU2784   AU        0.286429    0.072143    0.572143     0.007504
AU2785   AU        0.286429    0.107857    0.607857     0.007504
AU2786   AU        0.322143    0.072143    0.607857     0.007504
PD2787   PD        0.322143    0.107857    0.572143     0.005394
PD2788   PD        0.357857    0.072143    0.572143     0.005394
AU2789   AU        0.357857    0.107857    0.607857     0.007504
AU2790   AU        0.393571    0.072143    0.607857     0.007504
AU2791   AU        0.393571    0.107857    0.572143     0.007504
PD2792   PD        0.429286    0.072143    0.572143     0.005394
PD2793   PD        0.429286    0.107857    0.607857     0.005394
AU2794   AU        0.465000    0.072143    0.607857     0.007504
PD2795   PD        0.465000    0.107857    0.572143     0.005394
PD2796   PD        0.500714    0.072143    0.572143     0.005394
AU2797   AU        0.500714    0.107857    0.607857     0.007504
PD2798   PD        0.536429    0.072143    0.607857     0.005394
AU2799   AU        0.536429    0.107857    0.572143     0.007504
AU2800   AU        0.572143    0.072143    0.572143     0.007504
PD2801   PD        0.572143    0.107857    0.607857     0.005394
AU2802   AU        0.607857    0.072143    0.607857     0.007504
PD2803   PD        0.607857    0.107857    0.572143     0.005394
AU2804   AU        0.643571    0.107857    0.607857     0.007504
AU2805   AU        0.679286    0.107857    0.572143     0.007504
PD2806   PD        0.107857    0.179286    0.572143     0.005394
AU2807   AU        0.143571    0.143571    0.572143     0.007504
PD2808   PD        0.143571    0.179286    0.607857     0.005394
PD2809   PD        0.179286    0.143571    0.607857     0.005394
AU2810   AU        0.179286    0.179286    0.572143     0.007504
AU2811   AU        0.215000    0.143571    0.572143     0.007504
PD2812   PD        0.215000    0.179286    0.607857     0.005394
AU2813   AU        0.250714    0.143571    0.607857     0.007504
PD2814   PD        0.250714    0.179286    0.572143     0.005394
AU2815   AU        0.286429    0.143571    0.572143     0.007504
AU2816   AU        0.286429    0.179286    0.607857     0.007504
PD2817   PD        0.322143    0.143571    0.607857     0.005394
PD2818   PD        0.322143    0.179286    0.572143     0.005394
PD2819   PD        0.357857    0.143571    0.572143     0.005394
PD2820   PD        0.357857    0.179286    0.607857     0.005394
AU2821   AU        0.393571    0.143571    0.607857     0.007504
AU2822   AU        0.393571    0.179286    0.572143     0.007504
AU2823   AU        0.429286    0.143571    0.572143     0.007504
AU2824   AU        0.429286    0.179286    0.607857     0.007504
AU2825   AU        0.465000    0.143571    0.607857     0.007504
AU2826   AU        0.465000    0.179286    0.572143     0.007504
AU2827   AU        0.500714    0.143571    0.572143     0.007504
PD2828   PD        0.500714    0.179286    0.607857     0.005394
AU2829   AU        0.536429    0.143571    0.607857     0.007504
PD2830   PD        0.536429    0.179286    0.572143     0.005394
AU2831   AU        0.572143    0.143571    0.572143     0.007504
PD2832   PD        0.572143    0.179286    0.607857     0.005394
PD2833   PD        0.607857    0.143571    0.607857     0.005394
AU2834   AU        0.607857    0.179286    0.572143     0.007504
PD2835   PD        0.643571    0.143571    0.572143     0.005394
AU2836   AU        0.643571    0.179286    0.607857     0.007504
PD2837   PD        0.679286    0.143571    0.607857     0.005394
AU2838   AU        0.679286    0.179286    0.572143     0.007504
AU2839   AU        0.715000    0.143571    0.572143     0.007504
AU2840   AU        0.715000    0.179286    0.607857     0.007504
AU2841   AU        0.750714    0.179286    0.572143     0.007504
PD2842   PD        0.072143    0.250714    0.607857     0.005394
PD2843   PD        0.107857    0.215000    0.607857     0.005394
AU2844   AU        0.107857    0.250714    0.572143     0.007504
PD2845   PD        0.143571    0.215000    0.572143     0.005394
PD2846   PD        0.143571    0.250714    0.607857     0.005394
PD2847   PD        0.179286    0.215000    0.607857     0.005394
PD2848   PD        0.179286    0.250714    0.572143     0.005394
PD2849   PD        0.215000    0.215000    0.572143     0.005394
PD2850   PD        0.215000    0.250714    0.607857     0.005394
AU2851   AU        0.250714    0.215000    0.607857     0.007504
PD2852   PD        0.250714    0.250714    0.572143     0.005394
AU2853   AU        0.286429    0.215000    0.572143     0.007504
AU2854   AU        0.286429    0.250714    0.607857     0.007504
AU2855   AU        0.322143    0.215000    0.607857     0.007504
AU2856   AU        0.322143    0.250714    0.572143     0.007504
AU2857   AU        0.357857    0.215000    0.572143     0.007504
PD2858   PD        0.357857    0.250714    0.607857     0.005394
PD2859   PD        0.393571    0.215000    0.607857     0.005394
PD2860   PD        0.393571    0.250714    0.572143     0.005394
AU2861   AU        0.429286    0.215000    0.572143     0.007504
PD2862   PD        0.429286    0.250714    0.607857     0.005394
PD2863   PD        0.465000    0.215000    0.607857     0.005394
AU2864   AU        0.465000    0.250714    0.572143     0.007504
AU2865   AU        0.500714    0.215000    0.572143     0.007504
AU2866   AU        0.500714    0.250714    0.607857     0.007504
AU2867   AU        0.536429    0.215000    0.607857     0.007504
AU2868   AU        0.536429    0.250714    0.572143     0.007504
PD2869   PD        0.572143    0.215000    0.572143     0.005394
PD2870   PD        0.572143    0.250714    0.607857     0.005394
AU2871   AU        0.607857    0.215000    0.607857     0.007504
AU2872   AU        0.607857    0.250714    0.572143     0.007504
PD2873   PD        0.643571    0.215000    0.572143     0.005394
AU2874   AU        0.643571    0.250714    0.607857     0.007504
AU2875   AU        0.679286    0.215000    0.607857     0.007504
AU2876   AU        0.679286    0.250714    0.572143     0.007504
PD2877   PD        0.715000    0.215000    0.572143     0.005394
AU2878   AU        0.715000    0.250714    0.607857     0.007504
PD2879   PD        0.750714    0.215000    0.607857     0.005394
AU2880   AU        0.750714    0.250714    0.572143     0.007504
PD2881   PD        0.786429    0.250714    0.607857     0.005394
AU2882   AU        0.036429    0.322143    0.572143     0.007504
AU2883   AU        0.072143    0.286429    0.572143     0.007504
AU2884   AU        0.072143    0.322143    0.607857     0.007504
PD2885   PD        0.107857    0.286429    0.607857     0.005394
AU2886   AU        0.107857    0.322143    0.572143     0.007504
AU2887   AU        0.143571    0.286429    0.572143     0.007504
PD2888   PD        0.143571    0.322143    0.607857     0.005394
PD2889   PD        0.179286    0.286429    0.607857     0.005394
PD2890   PD        0.179286    0.322143    0.572143     0.005394
PD2891   PD        0.215000    0.286429    0.572143     0.005394
AU2892   AU        0.215000    0.322143    0.607857     0.007504
AU2893   AU        0.250714    0.286429    0.607857     0.007504
AU2894   AU        0.250714    0.322143    0.572143     0.007504
AU2895   AU        0.286429    0.286429    0.572143     0.007504
PD2896   PD        0.286429    0.322143    0.607857     0.005394
PD2897   PD        0.322143    0.286429    0.607857     0.005394
PD2898   PD        0.322143    0.322143    0.572143     0.005394
PD2899   PD        0.357857    0.286429    0.572143     0.005394
AU2900   AU        0.357857    0.322143    0.607857     0.007504
AU2901   AU        0.393571    0.286429    0.607857     0.007504
PD2902   PD        0.393571    0.322143    0.572143     0.005394
PD2903   PD        0.429286    0.286429    0.572143     0.005394
PD2904   PD        0.429286    0.322143    0.607857     0.005394
AU2905   AU        0.465000    0.286429    0.607857     0.007504
AU2906   AU        0.465000    0.322143    0.572143     0.007504
PD2907   PD        0.500714    0.286429    0.572143     0.005394
PD2908   PD        0.500714    0.322143    0.607857     0.005394
AU2909   AU        0.536429    0.286429    0.607857     0.007504
PD2910   PD        0.536429    0.322143    0.572143     0.005394
PD2911   PD        0.572143    0.286429    0.572143     0.005394
PD2912   PD        0.572143    0.322143    0.607857     0.005394
PD2913   PD        0.607857    0.286429    0.607857     0.005394
PD2914   PD        0.607857    0.322143    0.572143     0.005394
PD2915   PD        0.643571    0.286429    0.572143     0.005394
AU2916   AU        0.643571    0.322143    0.607857     0.007504
PD2917   PD        0.679286    0.286429    0.607857     0.005394
PD2918   PD        0.679286    0.322143    0.572143     0.005394
PD2919   PD        0.715000    0.286429    0.572143     0.005394
PD2920   PD        0.715000    0.322143    0.607857     0.005394
AU2921   AU        0.750714    0.286429    0.607857     0.007504
AU2922   AU        0.750714    0.322143    0.572143     0.007504
AU2923   AU        0.786429    0.286429    0.572143     0.007504
PD2924   PD        0.786429    0.322143    0.607857     0.005394
PD2925   PD        0.822143    0.322143    0.572143     0.005394
PD2926   PD        0.036429    0.357857    0.607857     0.005394
AU2927   AU        0.036429    0.393571    0.572143     0.007504
PD2928   PD        0.072143    0.357857    0.572143     0.005394
PD2929   PD        0.072143    0.393571    0.607857     0.005394
PD2930   PD        0.107857    0.357857    0.607857     0.005394
PD2931   PD        0.107857    0.393571    0.572143     0.005394
PD2932   PD        0.143571    0.357857    0.572143     0.005394
AU2933   AU        0.143571    0.393571    0.607857     0.007504
AU2934   AU        0.179286    0.357857    0.607857     0.007504
PD2935   PD        0.179286    0.393571    0.572143     0.005394
PD2936   PD        0.215000    0.357857    0.572143     0.005394
PD2937   PD        0.215000    0.393571    0.607857     0.005394
AU2938   AU        0.250714    0.357857    0.607857     0.007504
AU2939   AU        0.250714    0.393571    0.572143     0.007504
PD2940   PD        0.286429    0.357857    0.572143     0.005394
PD2941   PD        0.286429    0.393571    0.607857     0.005394
PD2942   PD        0.322143    0.357857    0.607857     0.005394
PD2943   PD        0.322143    0.393571    0.572143     0.005394
AU2944   AU        0.357857    0.357857    0.572143     0.007504
AU2945   AU        0.357857    0.393571    0.607857     0.007504
PD2946   PD        0.393571    0.357857    0.607857     0.005394
AU2947   AU        0.393571    0.393571    0.572143     0.007504
PD2948   PD        0.429286    0.357857    0.572143     0.005394
PD2949   PD        0.429286    0.393571    0.607857     0.005394
AU2950   AU        0.465000    0.357857    0.607857     0.007504
AU2951   AU        0.465000    0.393571    0.572143     0.007504
PD2952   PD        0.500714    0.357857    0.572143     0.005394
AU2953   AU        0.500714    0.393571    0.607857     0.007504
AU2954   AU        0.536429    0.357857    0.607857     0.007504
PD2955   PD        0.536429    0.393571    0.572143     0.005394
PD2956   PD        0.572143    0.357857    0.572143     0.005394
AU2957   AU        0.572143    0.393571    0.607857     0.007504
AU2958   AU        0.607857    0.357857    0.607857     0.007504
PD2959   PD        0.607857    0.393571    0.572143     0.005394
PD2960   PD        0.643571    0.357857    0.572143     0.005394
AU2961   AU        0.643571    0.393571    0.607857     0.007504
PD2962   PD        0.679286    0.357857    0.607857     0.005394
PD2963   PD        0.679286    0.393571    0.572143     0.005394
PD2964   PD        0.715000    0.357857    0.572143     0.005394
AU2965   AU        0.715000    0.393571    0.607857     0.007504
AU2966   AU        0.750714    0.357857    0.607857     0.007504
AU2967   AU        0.750714    0.393571    0.572143     0.007504
PD2968   PD        0.786429    0.357857    0.572143     0.005394
AU2969   AU        0.786429    0.393571    0.607857     0.007504
PD2970   PD        0.822143    0.357857    0.607857     0.005394
PD2971   PD        0.822143    0.393571    0.572143     0.005394
AU2972   AU        0.036429    0.429286    0.607857     0.007504
PD2973   PD        0.036429    0.465000    0.572143     0.005394
PD2974   PD        0.072143    0.429286    0.572143     0.005394
AU2975   AU        0.072143    0.465000    0.607857     0.007504
PD2976   PD        0.107857    0.429286    0.607857     0.005394
AU2977   AU        0.107857    0.465000    0.572143     0.007504
PD2978   PD        0.143571    0.429286    0.572143     0.005394
AU2979   AU        0.143571    0.465000    0.607857     0.007504
PD2980   PD        0.179286    0.429286    0.607857     0.005394
PD2981   PD        0.179286    0.465000    0.572143     0.005394
PD2982   PD        0.215000    0.429286    0.572143     0.005394
AU2983   AU        0.215000    0.465000    0.607857     0.007504
AU2984   AU        0.250714    0.429286    0.607857     0.007504
AU2985   AU        0.250714    0.465000    0.572143     0.007504
AU2986   AU        0.286429    0.429286    0.572143     0.007504
AU2987   AU        0.286429    0.465000    0.607857     0.007504
AU2988   AU        0.322143    0.429286    0.607857     0.007504
AU2989   AU        0.322143    0.465000    0.572143     0.007504
PD2990   PD        0.357857    0.429286    0.572143     0.005394
PD2991   PD        0.357857    0.465000    0.607857     0.005394
PD2992   PD        0.393571    0.429286    0.607857     0.005394
PD2993   PD        0.393571    0.465000    0.572143     0.005394
PD2994   PD        0.429286    0.429286    0.572143     0.005394
PD2995   PD        0.429286    0.465000    0.607857     0.005394
PD2996   PD        0.465000    0.429286    0.607857     0.005394
PD2997   PD        0.465000    0.465000    0.572143     0.005394
AU2998   AU        0.500714    0.429286    0.572143     0.007504
AU2999   AU        0.500714    0.465000    0.607857     0.007504
PD3000   PD        0.536429    0.429286    0.607857     0.005394
PD3001   PD        0.536429    0.465000    0.572143     0.005394
PD3002   PD        0.572143    0.429286    0.572143     0.005394
AU3003   AU        0.572143    0.465000    0.607857     0.007504
PD3004   PD        0.607857    0.429286    0.607857     0.005394
PD3005   PD        0.607857    0.465000    0.572143     0.005394
AU3006   AU        0.643571    0.429286    0.572143     0.007504
AU3007   AU        0.643571    0.465000    0.607857     0.007504
AU3008   AU        0.679286    0.429286    0.607857     0.007504
PD3009   PD        0.679286    0.465000    0.572143     0.005394
PD3010   PD        0.715000    0.429286    0.572143     0.005394
PD3011   PD        0.715000    0.465000    0.607857     0.005394
AU3012   AU        0.750714    0.429286    0.607857     0.007504
PD3013   PD        0.750714    0.465000    0.572143     0.005394
PD3014   PD        0.786429    0.429286    0.572143     0.005394
PD3015   PD        0.786429    0.465000    0.607857     0.005394
AU3016   AU        0.822143    0.429286    0.607857     0.007504
AU3017   AU        0.822143    0.465000    0.572143     0.007504
PD3018   PD        0.036429    0.500714    0.607857     0.005394
AU3019   AU        0.036429    0.536429    0.572143     0.007504
AU3020   AU        0.072143    0.500714    0.572143     0.007504
AU3021   AU        0.072143    0.536429    0.607857     0.007504
AU3022   AU        0.107857    0.500714    0.607857     0.007504
AU3023   AU        0.107857    0.536429    0.572143     0.007504
AU3024   AU        0.143571    0.500714    0.572143     0.007504
AU3025   AU        0.143571    0.536429    0.607857     0.007504
AU3026   AU        0.179286    0.500714    0.607857     0.007504
AU3027   AU        0.179286    0.536429    0.572143     0.007504
PD3028   PD        0.215000    0.500714    0.572143     0.005394
AU3029   AU        0.215000    0.536429    0.607857     0.007504
AU3030   AU        0.250714    0.500714    0.607857     0.007504
AU3031   AU        0.250714    0.536429    0.572143     0.007504
PD3032   PD        0.286429    0.500714    0.572143     0.005394
PD3033   PD        0.286429    0.536429    0.607857     0.005394
PD3034   PD        0.322143    0.500714    0.607857     0.005394
PD3035   PD        0.322143    0.536429    0.572143     0.005394
PD3036   PD        0.357857    0.500714    0.572143     0.005394
AU3037   AU        0.357857    0.536429    0.607857     0.007504
PD3038   PD        0.393571    0.500714    0.607857     0.005394
AU3039   AU        0.393571    0.536429    0.572143     0.007504
PD3040   PD        0.429286    0.500714    0.572143     0.005394
PD3041   PD        0.429286    0.536429    0.607857     0.005394
AU3042   AU        0.465000    0.500714    0.607857     0.007504
AU3043   AU        0.465000    0.536429    0.572143     0.007504
PD3044   PD        0.500714    0.500714    0.572143     0.005394
AU3045   AU        0.500714    0.536429    0.607857     0.007504
PD3046   PD        0.536429    0.500714    0.607857     0.005394
AU3047   AU        0.536429    0.536429    0.572143     0.007504
AU3048   AU        0.572143    0.500714    0.572143     0.007504
PD3049   PD        0.572143    0.536429    0.607857     0.005394
PD3050   PD        0.607857    0.500714    0.607857     0.005394
AU3051   AU        0.607857    0.536429    0.572143     0.007504
PD3052   PD        0.643571    0.500714    0.572143     0.005394
PD3053   PD        0.643571    0.536429    0.607857     0.005394
AU3054   AU        0.679286    0.500714    0.607857     0.007504
AU3055   AU        0.679286    0.536429    0.572143     0.007504
PD3056   PD        0.715000    0.500714    0.572143     0.005394
AU3057   AU        0.715000    0.536429    0.607857     0.007504
PD3058   PD        0.750714    0.500714    0.607857     0.005394
AU3059   AU        0.750714    0.536429    0.572143     0.007504
PD3060   PD        0.786429    0.500714    0.572143     0.005394
PD3061   PD        0.786429    0.536429    0.607857     0.005394
AU3062   AU        0.822143    0.500714    0.607857     0.007504
PD3063   PD        0.822143    0.536429    0.572143     0.005394
PD3064   PD        0.072143    0.572143    0.572143     0.005394
PD3065   PD        0.072143    0.607857    0.607857     0.005394
PD3066   PD        0.107857    0.572143    0.607857     0.005394
AU3067   AU        0.107857    0.607857    0.572143     0.007504
PD3068   PD        0.143571    0.572143    0.572143     0.005394
AU3069   AU        0.143571    0.607857    0.607857     0.007504
PD3070   PD        0.179286    0.572143    0.607857     0.005394
PD3071   PD        0.179286    0.607857    0.572143     0.005394
AU3072   AU        0.215000    0.572143    0.572143     0.007504
PD3073   PD        0.215000    0.607857    0.607857     0.005394
PD3074   PD        0.250714    0.572143    0.607857     0.005394
PD3075   PD        0.250714    0.607857    0.572143     0.005394
AU3076   AU        0.286429    0.572143    0.572143     0.007504
AU3077   AU        0.286429    0.607857    0.607857     0.007504
PD3078   PD        0.322143    0.572143    0.607857     0.005394
AU3079   AU        0.322143    0.607857    0.572143     0.007504
AU3080   AU        0.357857    0.572143    0.572143     0.007504
PD3081   PD        0.357857    0.607857    0.607857     0.005394
PD3082   PD        0.393571    0.572143    0.607857     0.005394
AU3083   AU        0.393571    0.607857    0.572143     0.007504
AU3084   AU        0.429286    0.572143    0.572143     0.007504
AU3085   AU        0.429286    0.607857    0.607857     0.007504
PD3086   PD        0.465000    0.572143    0.607857     0.005394
AU3087   AU        0.465000    0.607857    0.572143     0.007504
AU3088   AU        0.500714    0.572143    0.572143     0.007504
AU3089   AU        0.500714    0.607857    0.607857     0.007504
AU3090   AU        0.536429    0.572143    0.607857     0.007504
AU3091   AU        0.536429    0.607857    0.572143     0.007504
PD3092   PD        0.572143    0.572143    0.572143     0.005394
AU3093   AU        0.572143    0.607857    0.607857     0.007504
AU3094   AU        0.607857    0.572143    0.607857     0.007504
PD3095   PD        0.607857    0.607857    0.572143     0.005394
PD3096   PD        0.643571    0.572143    0.572143     0.005394
AU3097   AU        0.643571    0.607857    0.607857     0.007504
PD3098   PD        0.679286    0.572143    0.607857     0.005394
PD3099   PD        0.679286    0.607857    0.572143     0.005394
AU3100   AU        0.715000    0.572143    0.572143     0.007504
AU3101   AU        0.715000    0.607857    0.607857     0.007504
PD3102   PD        0.750714    0.572143    0.607857     0.005394
PD3103   PD        0.750714    0.607857    0.572143     0.005394
PD3104   PD        0.786429    0.572143    0.572143     0.005394
AU3105   AU        0.786429    0.607857    0.607857     0.007504
PD3106   PD        0.107857    0.643571    0.607857     0.005394
PD3107   PD        0.107857    0.679286    0.572143     0.005394
PD3108   PD        0.143571    0.643571    0.572143     0.005394
AU3109   AU        0.143571    0.679286    0.607857     0.007504
PD3110   PD        0.179286    0.643571    0.607857     0.005394
AU3111   AU        0.179286    0.679286    0.572143     0.007504
AU3112   AU        0.215000    0.643571    0.572143     0.007504
AU3113   AU        0.215000    0.679286    0.607857     0.007504
AU3114   AU        0.250714    0.643571    0.607857     0.007504
AU3115   AU        0.250714    0.679286    0.572143     0.007504
PD3116   PD        0.286429    0.643571    0.572143     0.005394
PD3117   PD        0.286429    0.679286    0.607857     0.005394
PD3118   PD        0.322143    0.643571    0.607857     0.005394
PD3119   PD        0.322143    0.679286    0.572143     0.005394
AU3120   AU        0.357857    0.643571    0.572143     0.007504
PD3121   PD        0.357857    0.679286    0.607857     0.005394
AU3122   AU        0.393571    0.643571    0.607857     0.007504
PD3123   PD        0.393571    0.679286    0.572143     0.005394
AU3124   AU        0.429286    0.643571    0.572143     0.007504
PD3125   PD        0.429286    0.679286    0.607857     0.005394
PD3126   PD        0.465000    0.643571    0.607857     0.005394
AU3127   AU        0.465000    0.679286    0.572143     0.007504
AU3128   AU        0.500714    0.643571    0.572143     0.007504
AU3129   AU        0.500714    0.679286    0.607857     0.007504
AU3130   AU        0.536429    0.643571    0.607857     0.007504
AU3131   AU        0.536429    0.679286    0.572143     0.007504
AU3132   AU        0.572143    0.643571    0.572143     0.007504
AU3133   AU        0.572143    0.679286    0.607857     0.007504
PD3134   PD        0.607857    0.643571    0.607857     0.005394
PD3135   PD        0.607857    0.679286    0.572143     0.005394
AU3136   AU        0.643571    0.643571    0.572143     0.007504
AU3137   AU        0.643571    0.679286    0.607857     0.007504
AU3138   AU        0.679286    0.643571    0.607857     0.007504
AU3139   AU        0.679286    0.679286    0.572143     0.007504
PD3140   PD        0.715000    0.643571    0.572143     0.005394
PD3141   PD        0.715000    0.679286    0.607857     0.005394
AU3142   AU        0.750714    0.643571    0.607857     0.007504
AU3143   AU        0.750714    0.679286    0.572143     0.007504
AU3144   AU        0.143571    0.715000    0.572143     0.007504
AU3145   AU        0.179286    0.715000    0.607857     0.007504
AU3146   AU        0.179286    0.750714    0.572143     0.007504
AU3147   AU        0.215000    0.715000    0.572143     0.007504
PD3148   PD        0.215000    0.750714    0.607857     0.005394
AU3149   AU        0.250714    0.715000    0.607857     0.007504
AU3150   AU        0.250714    0.750714    0.572143     0.007504
PD3151   PD        0.286429    0.715000    0.572143     0.005394
AU3152   AU        0.286429    0.750714    0.607857     0.007504
AU3153   AU        0.322143    0.715000    0.607857     0.007504
AU3154   AU        0.322143    0.750714    0.572143     0.007504
PD3155   PD        0.357857    0.715000    0.572143     0.005394
PD3156   PD        0.357857    0.750714    0.607857     0.005394
PD3157   PD        0.393571    0.715000    0.607857     0.005394
PD3158   PD        0.393571    0.750714    0.572143     0.005394
PD3159   PD        0.429286    0.715000    0.572143     0.005394
AU3160   AU        0.429286    0.750714    0.607857     0.007504
AU3161   AU        0.465000    0.715000    0.607857     0.007504
AU3162   AU        0.465000    0.750714    0.572143     0.007504
AU3163   AU        0.500714    0.715000    0.572143     0.007504
PD3164   PD        0.500714    0.750714    0.607857     0.005394
PD3165   PD        0.536429    0.715000    0.607857     0.005394
AU3166   AU        0.536429    0.750714    0.572143     0.007504
PD3167   PD        0.572143    0.715000    0.572143     0.005394
PD3168   PD        0.572143    0.750714    0.607857     0.005394
PD3169   PD        0.607857    0.715000    0.607857     0.005394
AU3170   AU        0.607857    0.750714    0.572143     0.007504
PD3171   PD        0.643571    0.715000    0.572143     0.005394
AU3172   AU        0.643571    0.750714    0.607857     0.007504
AU3173   AU        0.679286    0.715000    0.607857     0.007504
AU3174   AU        0.679286    0.750714    0.572143     0.007504
AU3175   AU        0.715000    0.715000    0.572143     0.007504
AU3176   AU        0.250714    0.786429    0.607857     0.007504
AU3177   AU        0.286429    0.786429    0.572143     0.007504
AU3178   AU        0.322143    0.786429    0.607857     0.007504
AU3179   AU        0.322143    0.822143    0.572143     0.007504
PD3180   PD        0.357857    0.786429    0.572143     0.005394
PD3181   PD        0.357857    0.822143    0.607857     0.005394
AU3182   AU        0.393571    0.786429    0.607857     0.007504
PD3183   PD        0.393571    0.822143    0.572143     0.005394
AU3184   AU        0.429286    0.786429    0.572143     0.007504
AU3185   AU        0.429286    0.822143    0.607857     0.007504
AU3186   AU        0.465000    0.786429    0.607857     0.007504
AU3187   AU        0.465000    0.822143    0.572143     0.007504
AU3188   AU        0.500714    0.786429    0.572143     0.007504
PD3189   PD        0.500714    0.822143    0.607857     0.005394
AU3190   AU        0.536429    0.786429    0.607857     0.007504
PD3191   PD        0.536429    0.822143    0.572143     0.005394
PD3192   PD        0.572143    0.786429    0.572143     0.005394
AU3193   AU        0.607857    0.786429    0.607857     0.007504
PD3194   PD        0.250714    0.107857    0.643571     0.005394
AU3195   AU        0.286429    0.107857    0.679286     0.007504
AU3196   AU        0.322143    0.107857    0.643571     0.007504
AU3197   AU        0.357857    0.072143    0.643571     0.007504
PD3198   PD        0.357857    0.107857    0.679286     0.005394
AU3199   AU        0.393571    0.072143    0.679286     0.007504
AU3200   AU        0.393571    0.107857    0.643571     0.007504
PD3201   PD        0.429286    0.072143    0.643571     0.005394
AU3202   AU        0.429286    0.107857    0.679286     0.007504
PD3203   PD        0.465000    0.072143    0.679286     0.005394
AU3204   AU        0.465000    0.107857    0.643571     0.007504
AU3205   AU        0.500714    0.072143    0.643571     0.007504
AU3206   AU        0.500714    0.107857    0.679286     0.007504
PD3207   PD        0.536429    0.107857    0.643571     0.005394
PD3208   PD        0.572143    0.107857    0.679286     0.005394
AU3209   AU        0.607857    0.107857    0.643571     0.007504
PD3210   PD        0.179286    0.179286    0.643571     0.005394
PD3211   PD        0.215000    0.143571    0.643571     0.005394
PD3212   PD        0.215000    0.179286    0.679286     0.005394
AU3213   AU        0.250714    0.143571    0.679286     0.007504
PD3214   PD        0.250714    0.179286    0.643571     0.005394
AU3215   AU        0.286429    0.143571    0.643571     0.007504
PD3216   PD        0.286429    0.179286    0.679286     0.005394
PD3217   PD        0.322143    0.143571    0.679286     0.005394
AU3218   AU        0.322143    0.179286    0.643571     0.007504
AU3219   AU        0.357857    0.143571    0.643571     0.007504
AU3220   AU        0.357857    0.179286    0.679286     0.007504
AU3221   AU        0.393571    0.143571    0.679286     0.007504
AU3222   AU        0.393571    0.179286    0.643571     0.007504
AU3223   AU        0.429286    0.143571    0.643571     0.007504
PD3224   PD        0.429286    0.179286    0.679286     0.005394
AU3225   AU        0.465000    0.143571    0.679286     0.007504
PD3226   PD        0.465000    0.179286    0.643571     0.005394
AU3227   AU        0.500714    0.143571    0.643571     0.007504
AU3228   AU        0.500714    0.179286    0.679286     0.007504
PD3229   PD        0.536429    0.143571    0.679286     0.005394
PD3230   PD        0.536429    0.179286    0.643571     0.005394
AU3231   AU        0.572143    0.143571    0.643571     0.007504
AU3232   AU        0.572143    0.179286    0.679286     0.007504
PD3233   PD        0.607857    0.143571    0.679286     0.005394
AU3234   AU        0.607857    0.179286    0.643571     0.007504
AU3235   AU        0.643571    0.143571    0.643571     0.007504
AU3236   AU        0.643571    0.179286    0.679286     0.007504
AU3237   AU        0.679286    0.179286    0.643571     0.007504
PD3238   PD        0.107857    0.250714    0.643571     0.005394
AU3239   AU        0.143571    0.215000    0.643571     0.007504
PD3240   PD        0.143571    0.250714    0.679286     0.005394
AU3241   AU        0.179286    0.215000    0.679286     0.007504
AU3242   AU        0.179286    0.250714    0.643571     0.007504
PD3243   PD        0.215000    0.215000    0.643571     0.005394
PD3244   PD        0.215000    0.250714    0.679286     0.005394
PD3245   PD        0.250714    0.215000    0.679286     0.005394
AU3246   AU        0.250714    0.250714    0.643571     0.007504
AU3247   AU        0.286429    0.215000    0.643571     0.007504
PD3248   PD        0.286429    0.250714    0.679286     0.005394
PD3249   PD        0.322143    0.215000    0.679286     0.005394
PD3250   PD        0.322143    0.250714    0.643571     0.005394
PD3251   PD        0.357857    0.215000    0.643571     0.005394
AU3252   AU        0.357857    0.250714    0.679286     0.007504
AU3253   AU        0.393571    0.215000    0.679286     0.007504
PD3254   PD        0.393571    0.250714    0.643571     0.005394
PD3255   PD        0.429286    0.215000    0.643571     0.005394
AU3256   AU        0.429286    0.250714    0.679286     0.007504
PD3257   PD        0.465000    0.215000    0.679286     0.005394
AU3258   AU        0.465000    0.250714    0.643571     0.007504
PD3259   PD        0.500714    0.215000    0.643571     0.005394
PD3260   PD        0.500714    0.250714    0.679286     0.005394
PD3261   PD        0.536429    0.215000    0.679286     0.005394
AU3262   AU        0.536429    0.250714    0.643571     0.007504
PD3263   PD        0.572143    0.215000    0.643571     0.005394
PD3264   PD        0.572143    0.250714    0.679286     0.005394
PD3265   PD        0.607857    0.215000    0.679286     0.005394
AU3266   AU        0.607857    0.250714    0.643571     0.007504
PD3267   PD        0.643571    0.215000    0.643571     0.005394
PD3268   PD        0.643571    0.250714    0.679286     0.005394
AU3269   AU        0.679286    0.215000    0.679286     0.007504
AU3270   AU        0.679286    0.250714    0.643571     0.007504
AU3271   AU        0.715000    0.215000    0.643571     0.007504
AU3272   AU        0.715000    0.250714    0.679286     0.007504
AU3273   AU        0.750714    0.250714    0.643571     0.007504
AU3274   AU        0.107857    0.286429    0.679286     0.007504
AU3275   AU        0.107857    0.322143    0.643571     0.007504
PD3276   PD        0.143571    0.286429    0.643571     0.005394
AU3277   AU        0.143571    0.322143    0.679286     0.007504
AU3278   AU        0.179286    0.286429    0.679286     0.007504
PD3279   PD        0.179286    0.322143    0.643571     0.005394
AU3280   AU        0.215000    0.286429    0.643571     0.007504
PD3281   PD        0.215000    0.322143    0.679286     0.005394
PD3282   PD        0.250714    0.286429    0.679286     0.005394
AU3283   AU        0.250714    0.322143    0.643571     0.007504
AU3284   AU        0.286429    0.286429    0.643571     0.007504
AU3285   AU        0.286429    0.322143    0.679286     0.007504
AU3286   AU        0.322143    0.286429    0.679286     0.007504
AU3287   AU        0.322143    0.322143    0.643571     0.007504
PD3288   PD        0.357857    0.286429    0.643571     0.005394
AU3289   AU        0.357857    0.322143    0.679286     0.007504
PD3290   PD        0.393571    0.286429    0.679286     0.005394
AU3291   AU        0.393571    0.322143    0.643571     0.007504
AU3292   AU        0.429286    0.286429    0.643571     0.007504
PD3293   PD        0.429286    0.322143    0.679286     0.005394
AU3294   AU        0.465000    0.286429    0.679286     0.007504
PD3295   PD        0.465000    0.322143    0.643571     0.005394
PD3296   PD        0.500714    0.286429    0.643571     0.005394
AU3297   AU        0.500714    0.322143    0.679286     0.007504
AU3298   AU        0.536429    0.286429    0.679286     0.007504
PD3299   PD        0.536429    0.322143    0.643571     0.005394
PD3300   PD        0.572143    0.286429    0.643571     0.005394
PD3301   PD        0.572143    0.322143    0.679286     0.005394
PD3302   PD        0.607857    0.286429    0.679286     0.005394
AU3303   AU        0.607857    0.322143    0.643571     0.007504
PD3304   PD        0.643571    0.286429    0.643571     0.005394
PD3305   PD        0.643571    0.322143    0.679286     0.005394
AU3306   AU        0.679286    0.286429    0.679286     0.007504
AU3307   AU        0.679286    0.322143    0.643571     0.007504
AU3308   AU        0.715000    0.286429    0.643571     0.007504
PD3309   PD        0.715000    0.322143    0.679286     0.005394
AU3310   AU        0.750714    0.286429    0.679286     0.007504
PD3311   PD        0.750714    0.322143    0.643571     0.005394
AU3312   AU        0.072143    0.357857    0.643571     0.007504
PD3313   PD        0.072143    0.393571    0.679286     0.005394
AU3314   AU        0.107857    0.357857    0.679286     0.007504
AU3315   AU        0.107857    0.393571    0.643571     0.007504
AU3316   AU        0.143571    0.357857    0.643571     0.007504
AU3317   AU        0.143571    0.393571    0.679286     0.007504
PD3318   PD        0.179286    0.357857    0.679286     0.005394
AU3319   AU        0.179286    0.393571    0.643571     0.007504
PD3320   PD        0.215000    0.357857    0.643571     0.005394
PD3321   PD        0.215000    0.393571    0.679286     0.005394
AU3322   AU        0.250714    0.357857    0.679286     0.007504
AU3323   AU        0.250714    0.393571    0.643571     0.007504
PD3324   PD        0.286429    0.357857    0.643571     0.005394
AU3325   AU        0.286429    0.393571    0.679286     0.007504
PD3326   PD        0.322143    0.357857    0.679286     0.005394
PD3327   PD        0.322143    0.393571    0.643571     0.005394
AU3328   AU        0.357857    0.357857    0.643571     0.007504
PD3329   PD        0.357857    0.393571    0.679286     0.005394
PD3330   PD        0.393571    0.357857    0.679286     0.005394
PD3331   PD        0.393571    0.393571    0.643571     0.005394
AU3332   AU        0.429286    0.357857    0.643571     0.007504
PD3333   PD        0.429286    0.393571    0.679286     0.005394
PD3334   PD        0.465000    0.357857    0.679286     0.005394
AU3335   AU        0.465000    0.393571    0.643571     0.007504
AU3336   AU        0.500714    0.357857    0.643571     0.007504
PD3337   PD        0.500714    0.393571    0.679286     0.005394
PD3338   PD        0.536429    0.357857    0.679286     0.005394
PD3339   PD        0.536429    0.393571    0.643571     0.005394
AU3340   AU        0.572143    0.357857    0.643571     0.007504
PD3341   PD        0.572143    0.393571    0.679286     0.005394
AU3342   AU        0.607857    0.357857    0.679286     0.007504
AU3343   AU        0.607857    0.393571    0.643571     0.007504
AU3344   AU        0.643571    0.357857    0.643571     0.007504
AU3345   AU        0.643571    0.393571    0.679286     0.007504
PD3346   PD        0.679286    0.357857    0.679286     0.005394
PD3347   PD        0.679286    0.393571    0.643571     0.005394
PD3348   PD        0.715000    0.357857    0.643571     0.005394
AU3349   AU        0.715000    0.393571    0.679286     0.007504
PD3350   PD        0.750714    0.357857    0.679286     0.005394
AU3351   AU        0.750714    0.393571    0.643571     0.007504
PD3352   PD        0.786429    0.357857    0.643571     0.005394
PD3353   PD        0.786429    0.393571    0.679286     0.005394
AU3354   AU        0.072143    0.429286    0.643571     0.007504
AU3355   AU        0.072143    0.465000    0.679286     0.007504
AU3356   AU        0.107857    0.429286    0.679286     0.007504
PD3357   PD        0.107857    0.465000    0.643571     0.005394
AU3358   AU        0.143571    0.429286    0.643571     0.007504
AU3359   AU        0.143571    0.465000    0.679286     0.007504
AU3360   AU        0.179286    0.429286    0.679286     0.007504
AU3361   AU        0.179286    0.465000    0.643571     0.007504
PD3362   PD        0.215000    0.429286    0.643571     0.005394
AU3363   AU        0.215000    0.465000    0.679286     0.007504
PD3364   PD        0.250714    0.429286    0.679286     0.005394
PD3365   PD        0.250714    0.465000    0.643571     0.005394
AU3366   AU        0.286429    0.429286    0.643571     0.007504
AU3367   AU        0.286429    0.465000    0.679286     0.007504
PD3368   PD        0.322143    0.429286    0.679286     0.005394
PD3369   PD        0.322143    0.465000    0.643571     0.005394
PD3370   PD        0.357857    0.429286    0.643571     0.005394
PD3371   PD        0.357857    0.465000    0.679286     0.005394
PD3372   PD        0.393571    0.429286    0.679286     0.005394
PD3373   PD        0.393571    0.465000    0.643571     0.005394
AU3374   AU        0.429286    0.429286    0.643571     0.007504
AU3375   AU        0.429286    0.465000    0.679286     0.007504
PD3376   PD        0.465000    0.429286    0.679286     0.005394
PD3377   PD        0.465000    0.465000    0.643571     0.005394
PD3378   PD        0.500714    0.429286    0.643571     0.005394
AU3379   AU        0.500714    0.465000    0.679286     0.007504
AU3380   AU        0.536429    0.429286    0.679286     0.007504
PD3381   PD        0.536429    0.465000    0.643571     0.005394
PD3382   PD        0.572143    0.429286    0.643571     0.005394
AU3383   AU        0.572143    0.465000    0.679286     0.007504
PD3384   PD        0.607857    0.429286    0.679286     0.005394
PD3385   PD        0.607857    0.465000    0.643571     0.005394
AU3386   AU        0.643571    0.429286    0.643571     0.007504
PD3387   PD        0.643571    0.465000    0.679286     0.005394
PD3388   PD        0.679286    0.429286    0.679286     0.005394
AU3389   AU        0.679286    0.465000    0.643571     0.007504
AU3390   AU        0.715000    0.429286    0.643571     0.007504
AU3391   AU        0.715000    0.465000    0.679286     0.007504
PD3392   PD        0.750714    0.429286    0.679286     0.005394
PD3393   PD        0.750714    0.465000    0.643571     0.005394
AU3394   AU        0.786429    0.429286    0.643571     0.007504
PD3395   PD        0.786429    0.465000    0.679286     0.005394
AU3396   AU        0.072143    0.500714    0.643571     0.007504
PD3397   PD        0.107857    0.500714    0.679286     0.005394
AU3398   AU        0.107857    0.536429    0.643571     0.007504
AU3399   AU        0.143571    0.500714    0.643571     0.007504
AU3400   AU        0.143571    0.536429    0.679286     0.007504
AU3401   AU        0.179286    0.500714    0.679286     0.007504
PD3402   PD        0.179286    0.536429    0.643571     0.005394
PD3403   PD        0.215000    0.500714    0.643571     0.005394
PD3404   PD        0.215000    0.536429    0.679286     0.005394
PD3405   PD        0.250714    0.500714    0.679286     0.005394
PD3406   PD        0.250714    0.536429    0.643571     0.005394
PD3407   PD        0.286429    0.500714    0.643571     0.005394
PD3408   PD        0.286429    0.536429    0.679286     0.005394
AU3409   AU        0.322143    0.500714    0.679286     0.007504
AU3410   AU        0.322143    0.536429    0.643571     0.007504
PD3411   PD        0.357857    0.500714    0.643571     0.005394
PD3412   PD        0.357857    0.536429    0.679286     0.005394
AU3413   AU        0.393571    0.500714    0.679286     0.007504
AU3414   AU        0.393571    0.536429    0.643571     0.007504
PD3415   PD        0.429286    0.500714    0.643571     0.005394
AU3416   AU        0.429286    0.536429    0.679286     0.007504
AU3417   AU        0.465000    0.500714    0.679286     0.007504
AU3418   AU        0.465000    0.536429    0.643571     0.007504
AU3419   AU        0.500714    0.500714    0.643571     0.007504
AU3420   AU        0.500714    0.536429    0.679286     0.007504
PD3421   PD        0.536429    0.500714    0.679286     0.005394
PD3422   PD        0.536429    0.536429    0.643571     0.005394
AU3423   AU        0.572143    0.500714    0.643571     0.007504
AU3424   AU        0.572143    0.536429    0.679286     0.007504
AU3425   AU        0.607857    0.500714    0.679286     0.007504
AU3426   AU        0.607857    0.536429    0.643571     0.007504
AU3427   AU        0.643571    0.500714    0.643571     0.007504
PD3428   PD        0.643571    0.536429    0.679286     0.005394
AU3429   AU        0.679286    0.500714    0.679286     0.007504
PD3430   PD        0.679286    0.536429    0.643571     0.005394
AU3431   AU        0.715000    0.500714    0.643571     0.007504
AU3432   AU        0.715000    0.536429    0.679286     0.007504
PD3433   PD        0.750714    0.500714    0.679286     0.005394
AU3434   AU        0.750714    0.536429    0.643571     0.007504
PD3435   PD        0.786429    0.500714    0.643571     0.005394
AU3436   AU        0.107857    0.572143    0.679286     0.007504
AU3437   AU        0.107857    0.607857    0.643571     0.007504
PD3438   PD        0.143571    0.572143    0.643571     0.005394
PD3439   PD        0.143571    0.607857    0.679286     0.005394
AU3440   AU        0.179286    0.572143    0.679286     0.007504
PD3441   PD        0.179286    0.607857    0.643571     0.005394
PD3442   PD        0.215000    0.572143    0.643571     0.005394
PD3443   PD        0.215000    0.607857    0.679286     0.005394
PD3444   PD        0.250714    0.572143    0.679286     0.005394
PD3445   PD        0.250714    0.607857    0.643571     0.005394
AU3446   AU        0.286429    0.572143    0.643571     0.007504
AU3447   AU        0.286429    0.607857    0.679286     0.007504
AU3448   AU        0.322143    0.572143    0.679286     0.007504
AU3449   AU        0.322143    0.607857    0.643571     0.007504
PD3450   PD        0.357857    0.572143    0.643571     0.005394
PD3451   PD        0.357857    0.607857    0.679286     0.005394
AU3452   AU        0.393571    0.572143    0.679286     0.007504
PD3453   PD        0.393571    0.607857    0.643571     0.005394
PD3454   PD        0.429286    0.572143    0.643571     0.005394
AU3455   AU        0.429286    0.607857    0.679286     0.007504
AU3456   AU        0.465000    0.572143    0.679286     0.007504
PD3457   PD        0.465000    0.607857    0.643571     0.005394
AU3458   AU        0.500714    0.572143    0.643571     0.007504
PD3459   PD        0.500714    0.607857    0.679286     0.005394
PD3460   PD        0.536429    0.572143    0.679286     0.005394
AU3461   AU        0.536429    0.607857    0.643571     0.007504
AU3462   AU        0.572143    0.572143    0.643571     0.007504
AU3463   AU        0.572143    0.607857    0.679286     0.007504
PD3464   PD        0.607857    0.572143    0.679286     0.005394
PD3465   PD        0.607857    0.607857    0.643571     0.005394
AU3466   AU        0.643571    0.572143    0.643571     0.007504
PD3467   PD        0.643571    0.607857    0.679286     0.005394
AU3468   AU        0.679286    0.572143    0.679286     0.007504
PD3469   PD        0.679286    0.607857    0.643571     0.005394
PD3470   PD        0.715000    0.572143    0.643571     0.005394
PD3471   PD        0.715000    0.607857    0.679286     0.005394
PD3472   PD        0.750714    0.572143    0.679286     0.005394
PD3473   PD        0.750714    0.607857    0.643571     0.005394
AU3474   AU        0.143571    0.643571    0.643571     0.007504
AU3475   AU        0.179286    0.643571    0.679286     0.007504
PD3476   PD        0.179286    0.679286    0.643571     0.005394
PD3477   PD        0.215000    0.643571    0.643571     0.005394
PD3478   PD        0.215000    0.679286    0.679286     0.005394
PD3479   PD        0.250714    0.643571    0.679286     0.005394
AU3480   AU        0.250714    0.679286    0.643571     0.007504
AU3481   AU        0.286429    0.643571    0.643571     0.007504
PD3482   PD        0.286429    0.679286    0.679286     0.005394
PD3483   PD        0.322143    0.643571    0.679286     0.005394
AU3484   AU        0.322143    0.679286    0.643571     0.007504
PD3485   PD        0.357857    0.643571    0.643571     0.005394
AU3486   AU        0.357857    0.679286    0.679286     0.007504
AU3487   AU        0.393571    0.643571    0.679286     0.007504
PD3488   PD        0.393571    0.679286    0.643571     0.005394
PD3489   PD        0.429286    0.643571    0.643571     0.005394
PD3490   PD        0.429286    0.679286    0.679286     0.005394
AU3491   AU        0.465000    0.643571    0.679286     0.007504
AU3492   AU        0.465000    0.679286    0.643571     0.007504
PD3493   PD        0.500714    0.643571    0.643571     0.005394
PD3494   PD        0.500714    0.679286    0.679286     0.005394
PD3495   PD        0.536429    0.643571    0.679286     0.005394
PD3496   PD        0.536429    0.679286    0.643571     0.005394
PD3497   PD        0.572143    0.643571    0.643571     0.005394
PD3498   PD        0.572143    0.679286    0.679286     0.005394
PD3499   PD        0.607857    0.643571    0.679286     0.005394
AU3500   AU        0.607857    0.679286    0.643571     0.007504
AU3501   AU        0.643571    0.643571    0.643571     0.007504
PD3502   PD        0.643571    0.679286    0.679286     0.005394
PD3503   PD        0.679286    0.643571    0.679286     0.005394
PD3504   PD        0.679286    0.679286    0.643571     0.005394
PD3505   PD        0.715000    0.643571    0.643571     0.005394
AU3506   AU        0.215000    0.715000    0.643571     0.007504
PD3507   PD        0.250714    0.715000    0.679286     0.005394
PD3508   PD        0.250714    0.750714    0.643571     0.005394
PD3509   PD        0.286429    0.715000    0.643571     0.005394
PD3510   PD        0.286429    0.750714    0.679286     0.005394
AU3511   AU        0.322143    0.715000    0.679286     0.007504
AU3512   AU        0.322143    0.750714    0.643571     0.007504
AU3513   AU        0.357857    0.715000    0.643571     0.007504
AU3514   AU        0.357857    0.750714    0.679286     0.007504
AU3515   AU        0.393571    0.715000    0.679286     0.007504
AU3516   AU        0.393571    0.750714    0.643571     0.007504
PD3517   PD        0.429286    0.715000    0.643571     0.005394
PD3518   PD        0.429286    0.750714    0.679286     0.005394
PD3519   PD        0.465000    0.715000    0.679286     0.005394
PD3520   PD        0.465000    0.750714    0.643571     0.005394
PD3521   PD        0.500714    0.715000    0.643571     0.005394
AU3522   AU        0.500714    0.750714    0.679286     0.007504
PD3523   PD        0.536429    0.715000    0.679286     0.005394
PD3524   PD        0.536429    0.750714    0.643571     0.005394
AU3525   AU        0.572143    0.715000    0.643571     0.007504
AU3526   AU        0.572143    0.750714    0.679286     0.007504
PD3527   PD        0.607857    0.715000    0.679286     0.005394
AU3528   AU        0.607857    0.750714    0.643571     0.007504
AU3529   AU        0.643571    0.715000    0.643571     0.007504
AU3530   AU        0.357857    0.786429    0.643571     0.007504
PD3531   PD        0.393571    0.786429    0.679286     0.005394
PD3532   PD        0.429286    0.786429    0.643571     0.005394
PD3533   PD        0.465000    0.786429    0.679286     0.005394
AU3534   AU        0.500714    0.786429    0.643571     0.007504
AU3535   AU        0.393571    0.107857    0.715000     0.007504
PD3536   PD        0.465000    0.107857    0.715000     0.005394
AU3537   AU        0.250714    0.179286    0.715000     0.007504
AU3538   AU        0.286429    0.143571    0.715000     0.007504
AU3539   AU        0.286429    0.179286    0.750714     0.007504
PD3540   PD        0.322143    0.179286    0.715000     0.005394
PD3541   PD        0.357857    0.143571    0.715000     0.005394
AU3542   AU        0.357857    0.179286    0.750714     0.007504
AU3543   AU        0.393571    0.143571    0.750714     0.007504
AU3544   AU        0.393571    0.179286    0.715000     0.007504
AU3545   AU        0.429286    0.143571    0.715000     0.007504
PD3546   PD        0.429286    0.179286    0.750714     0.005394
PD3547   PD        0.465000    0.143571    0.750714     0.005394
PD3548   PD        0.465000    0.179286    0.715000     0.005394
PD3549   PD        0.500714    0.143571    0.715000     0.005394
AU3550   AU        0.500714    0.179286    0.750714     0.007504
PD3551   PD        0.536429    0.179286    0.715000     0.005394
AU3552   AU        0.572143    0.143571    0.715000     0.007504
AU3553   AU        0.572143    0.179286    0.750714     0.007504
PD3554   PD        0.607857    0.179286    0.715000     0.005394
AU3555   AU        0.179286    0.250714    0.715000     0.007504
PD3556   PD        0.215000    0.215000    0.715000     0.005394
AU3557   AU        0.215000    0.250714    0.750714     0.007504
PD3558   PD        0.250714    0.215000    0.750714     0.005394
AU3559   AU        0.250714    0.250714    0.715000     0.007504
AU3560   AU        0.286429    0.215000    0.715000     0.007504
PD3561   PD        0.286429    0.250714    0.750714     0.005394
PD3562   PD        0.322143    0.215000    0.750714     0.005394
PD3563   PD        0.322143    0.250714    0.715000     0.005394
PD3564   PD        0.357857    0.215000    0.715000     0.005394
AU3565   AU        0.357857    0.250714    0.750714     0.007504
PD3566   PD        0.393571    0.215000    0.750714     0.005394
PD3567   PD        0.393571    0.250714    0.715000     0.005394
PD3568   PD        0.429286    0.215000    0.715000     0.005394
AU3569   AU        0.429286    0.250714    0.750714     0.007504
AU3570   AU        0.465000    0.215000    0.750714     0.007504
AU3571   AU        0.465000    0.250714    0.715000     0.007504
PD3572   PD        0.500714    0.215000    0.715000     0.005394
AU3573   AU        0.500714    0.250714    0.750714     0.007504
AU3574   AU        0.536429    0.215000    0.750714     0.007504
PD3575   PD        0.536429    0.250714    0.715000     0.005394
PD3576   PD        0.572143    0.215000    0.715000     0.005394
AU3577   AU        0.572143    0.250714    0.750714     0.007504
PD3578   PD        0.607857    0.215000    0.750714     0.005394
PD3579   PD        0.607857    0.250714    0.715000     0.005394
AU3580   AU        0.643571    0.215000    0.715000     0.007504
AU3581   AU        0.643571    0.250714    0.750714     0.007504
PD3582   PD        0.679286    0.250714    0.715000     0.005394
PD3583   PD        0.143571    0.286429    0.715000     0.005394
AU3584   AU        0.179286    0.286429    0.750714     0.007504
PD3585   PD        0.179286    0.322143    0.715000     0.005394
AU3586   AU        0.215000    0.286429    0.715000     0.007504
PD3587   PD        0.215000    0.322143    0.750714     0.005394
PD3588   PD        0.250714    0.286429    0.750714     0.005394
AU3589   AU        0.250714    0.322143    0.715000     0.007504
PD3590   PD        0.286429    0.286429    0.715000     0.005394
AU3591   AU        0.286429    0.322143    0.750714     0.007504
PD3592   PD        0.322143    0.286429    0.750714     0.005394
AU3593   AU        0.322143    0.322143    0.715000     0.007504
AU3594   AU        0.357857    0.286429    0.715000     0.007504
AU3595   AU        0.357857    0.322143    0.750714     0.007504
PD3596   PD        0.393571    0.286429    0.750714     0.005394
PD3597   PD        0.393571    0.322143    0.715000     0.005394
AU3598   AU        0.429286    0.286429    0.715000     0.007504
PD3599   PD        0.429286    0.322143    0.750714     0.005394
AU3600   AU        0.465000    0.286429    0.750714     0.007504
PD3601   PD        0.465000    0.322143    0.715000     0.005394
PD3602   PD        0.500714    0.286429    0.715000     0.005394
PD3603   PD        0.500714    0.322143    0.750714     0.005394
PD3604   PD        0.536429    0.286429    0.750714     0.005394
AU3605   AU        0.536429    0.322143    0.715000     0.007504
PD3606   PD        0.572143    0.286429    0.715000     0.005394
AU3607   AU        0.572143    0.322143    0.750714     0.007504
PD3608   PD        0.607857    0.286429    0.750714     0.005394
PD3609   PD        0.607857    0.322143    0.715000     0.005394
PD3610   PD        0.643571    0.286429    0.715000     0.005394
PD3611   PD        0.643571    0.322143    0.750714     0.005394
AU3612   AU        0.679286    0.286429    0.750714     0.007504
PD3613   PD        0.679286    0.322143    0.715000     0.005394
PD3614   PD        0.715000    0.286429    0.715000     0.005394
AU3615   AU        0.107857    0.393571    0.715000     0.007504
PD3616   PD        0.143571    0.357857    0.715000     0.005394
PD3617   PD        0.143571    0.393571    0.750714     0.005394
AU3618   AU        0.179286    0.357857    0.750714     0.007504
PD3619   PD        0.179286    0.393571    0.715000     0.005394
AU3620   AU        0.215000    0.357857    0.715000     0.007504
PD3621   PD        0.215000    0.393571    0.750714     0.005394
PD3622   PD        0.250714    0.357857    0.750714     0.005394
AU3623   AU        0.250714    0.393571    0.715000     0.007504
AU3624   AU        0.286429    0.357857    0.715000     0.007504
AU3625   AU        0.286429    0.393571    0.750714     0.007504
PD3626   PD        0.322143    0.357857    0.750714     0.005394
PD3627   PD        0.322143    0.393571    0.715000     0.005394
AU3628   AU        0.357857    0.357857    0.715000     0.007504
AU3629   AU        0.357857    0.393571    0.750714     0.007504
PD3630   PD        0.393571    0.357857    0.750714     0.005394
AU3631   AU        0.393571    0.393571    0.715000     0.007504
PD3632   PD        0.429286    0.357857    0.715000     0.005394
AU3633   AU        0.429286    0.393571    0.750714     0.007504
PD3634   PD        0.465000    0.357857    0.750714     0.005394
AU3635   AU        0.465000    0.393571    0.715000     0.007504
PD3636   PD        0.500714    0.357857    0.715000     0.005394
AU3637   AU        0.500714    0.393571    0.750714     0.007504
AU3638   AU        0.536429    0.357857    0.750714     0.007504
PD3639   PD        0.536429    0.393571    0.715000     0.005394
PD3640   PD        0.572143    0.357857    0.715000     0.005394
PD3641   PD        0.572143    0.393571    0.750714     0.005394
AU3642   AU        0.607857    0.357857    0.750714     0.007504
AU3643   AU        0.607857    0.393571    0.715000     0.007504
PD3644   PD        0.643571    0.357857    0.715000     0.005394
AU3645   AU        0.643571    0.393571    0.750714     0.007504
PD3646   PD        0.679286    0.357857    0.750714     0.005394
AU3647   AU        0.679286    0.393571    0.715000     0.007504
AU3648   AU        0.715000    0.357857    0.715000     0.007504
PD3649   PD        0.715000    0.393571    0.750714     0.005394
PD3650   PD        0.750714    0.393571    0.715000     0.005394
PD3651   PD        0.107857    0.465000    0.715000     0.005394
AU3652   AU        0.143571    0.429286    0.715000     0.007504
AU3653   AU        0.143571    0.465000    0.750714     0.007504
AU3654   AU        0.179286    0.429286    0.750714     0.007504
PD3655   PD        0.179286    0.465000    0.715000     0.005394
AU3656   AU        0.215000    0.429286    0.715000     0.007504
PD3657   PD        0.215000    0.465000    0.750714     0.005394
PD3658   PD        0.250714    0.429286    0.750714     0.005394
PD3659   PD        0.250714    0.465000    0.715000     0.005394
PD3660   PD        0.286429    0.429286    0.715000     0.005394
AU3661   AU        0.286429    0.465000    0.750714     0.007504
AU3662   AU        0.322143    0.429286    0.750714     0.007504
PD3663   PD        0.322143    0.465000    0.715000     0.005394
AU3664   AU        0.357857    0.429286    0.715000     0.007504
AU3665   AU        0.357857    0.465000    0.750714     0.007504
AU3666   AU        0.393571    0.429286    0.750714     0.007504
AU3667   AU        0.393571    0.465000    0.715000     0.007504
PD3668   PD        0.429286    0.429286    0.715000     0.005394
AU3669   AU        0.429286    0.465000    0.750714     0.007504
PD3670   PD        0.465000    0.429286    0.750714     0.005394
AU3671   AU        0.465000    0.465000    0.715000     0.007504
PD3672   PD        0.500714    0.429286    0.715000     0.005394
PD3673   PD        0.500714    0.465000    0.750714     0.005394
PD3674   PD        0.536429    0.429286    0.750714     0.005394
PD3675   PD        0.536429    0.465000    0.715000     0.005394
PD3676   PD        0.572143    0.429286    0.715000     0.005394
AU3677   AU        0.572143    0.465000    0.750714     0.007504
PD3678   PD        0.607857    0.429286    0.750714     0.005394
PD3679   PD        0.607857    0.465000    0.715000     0.005394
AU3680   AU        0.643571    0.429286    0.715000     0.007504
AU3681   AU        0.643571    0.465000    0.750714     0.007504
AU3682   AU        0.679286    0.429286    0.750714     0.007504
PD3683   PD        0.679286    0.465000    0.715000     0.005394
AU3684   AU        0.715000    0.429286    0.715000     0.007504
PD3685   PD        0.715000    0.465000    0.750714     0.005394
PD3686   PD        0.750714    0.465000    0.715000     0.005394
AU3687   AU        0.143571    0.500714    0.715000     0.007504
AU3688   AU        0.179286    0.500714    0.750714     0.007504
PD3689   PD        0.179286    0.536429    0.715000     0.005394
PD3690   PD        0.215000    0.500714    0.715000     0.005394
PD3691   PD        0.215000    0.536429    0.750714     0.005394
PD3692   PD        0.250714    0.500714    0.750714     0.005394
PD3693   PD        0.250714    0.536429    0.715000     0.005394
AU3694   AU        0.286429    0.500714    0.715000     0.007504
PD3695   PD        0.286429    0.536429    0.750714     0.005394
PD3696   PD        0.322143    0.500714    0.750714     0.005394
PD3697   PD        0.322143    0.536429    0.715000     0.005394
AU3698   AU        0.357857    0.500714    0.715000     0.007504
AU3699   AU        0.357857    0.536429    0.750714     0.007504
PD3700   PD        0.393571    0.500714    0.750714     0.005394
PD3701   PD        0.393571    0.536429    0.715000     0.005394
PD3702   PD        0.429286    0.500714    0.715000     0.005394
PD3703   PD        0.429286    0.536429    0.750714     0.005394
AU3704   AU        0.465000    0.500714    0.750714     0.007504
PD3705   PD        0.465000    0.536429    0.715000     0.005394
PD3706   PD        0.500714    0.500714    0.715000     0.005394
PD3707   PD        0.500714    0.536429    0.750714     0.005394
PD3708   PD        0.536429    0.500714    0.750714     0.005394
AU3709   AU        0.536429    0.536429    0.715000     0.007504
AU3710   AU        0.572143    0.500714    0.715000     0.007504
PD3711   PD        0.572143    0.536429    0.750714     0.005394
AU3712   AU        0.607857    0.500714    0.750714     0.007504
AU3713   AU        0.607857    0.536429    0.715000     0.007504
AU3714   AU        0.643571    0.500714    0.715000     0.007504
PD3715   PD        0.643571    0.536429    0.750714     0.005394
AU3716   AU        0.679286    0.500714    0.750714     0.007504
PD3717   PD        0.679286    0.536429    0.715000     0.005394
AU3718   AU        0.715000    0.500714    0.715000     0.007504
AU3719   AU        0.143571    0.572143    0.715000     0.007504
AU3720   AU        0.179286    0.572143    0.750714     0.007504
AU3721   AU        0.179286    0.607857    0.715000     0.007504
AU3722   AU        0.215000    0.572143    0.715000     0.007504
AU3723   AU        0.215000    0.607857    0.750714     0.007504
PD3724   PD        0.250714    0.572143    0.750714     0.005394
AU3725   AU        0.250714    0.607857    0.715000     0.007504
PD3726   PD        0.286429    0.572143    0.715000     0.005394
PD3727   PD        0.286429    0.607857    0.750714     0.005394
PD3728   PD        0.322143    0.572143    0.750714     0.005394
PD3729   PD        0.322143    0.607857    0.715000     0.005394
PD3730   PD        0.357857    0.572143    0.715000     0.005394
PD3731   PD        0.357857    0.607857    0.750714     0.005394
AU3732   AU        0.393571    0.572143    0.750714     0.007504
AU3733   AU        0.393571    0.607857    0.715000     0.007504
PD3734   PD        0.429286    0.572143    0.715000     0.005394
PD3735   PD        0.429286    0.607857    0.750714     0.005394
PD3736   PD        0.465000    0.572143    0.750714     0.005394
AU3737   AU        0.465000    0.607857    0.715000     0.007504
AU3738   AU        0.500714    0.572143    0.715000     0.007504
AU3739   AU        0.500714    0.607857    0.750714     0.007504
PD3740   PD        0.536429    0.572143    0.750714     0.005394
PD3741   PD        0.536429    0.607857    0.715000     0.005394
PD3742   PD        0.572143    0.572143    0.715000     0.005394
PD3743   PD        0.572143    0.607857    0.750714     0.005394
PD3744   PD        0.607857    0.572143    0.750714     0.005394
PD3745   PD        0.607857    0.607857    0.715000     0.005394
PD3746   PD        0.643571    0.572143    0.715000     0.005394
AU3747   AU        0.643571    0.607857    0.750714     0.007504
AU3748   AU        0.679286    0.572143    0.750714     0.007504
AU3749   AU        0.679286    0.607857    0.715000     0.007504
AU3750   AU        0.715000    0.572143    0.715000     0.007504
PD3751   PD        0.215000    0.643571    0.715000     0.005394
AU3752   AU        0.250714    0.643571    0.750714     0.007504
PD3753   PD        0.250714    0.679286    0.715000     0.005394
AU3754   AU        0.286429    0.643571    0.715000     0.007504
PD3755   PD        0.286429    0.679286    0.750714     0.005394
PD3756   PD        0.322143    0.643571    0.750714     0.005394
AU3757   AU        0.322143    0.679286    0.715000     0.007504
AU3758   AU        0.357857    0.643571    0.715000     0.007504
AU3759   AU        0.357857    0.679286    0.750714     0.007504
PD3760   PD        0.393571    0.643571    0.750714     0.005394
PD3761   PD        0.393571    0.679286    0.715000     0.005394
AU3762   AU        0.429286    0.643571    0.715000     0.007504
AU3763   AU        0.429286    0.679286    0.750714     0.007504
AU3764   AU        0.465000    0.643571    0.750714     0.007504
PD3765   PD        0.465000    0.679286    0.715000     0.005394
PD3766   PD        0.500714    0.643571    0.715000     0.005394
PD3767   PD        0.500714    0.679286    0.750714     0.005394
AU3768   AU        0.536429    0.643571    0.750714     0.007504
AU3769   AU        0.536429    0.679286    0.715000     0.007504
AU3770   AU        0.572143    0.643571    0.715000     0.007504
PD3771   PD        0.572143    0.679286    0.750714     0.005394
PD3772   PD        0.607857    0.643571    0.750714     0.005394
AU3773   AU        0.607857    0.679286    0.715000     0.007504
AU3774   AU        0.643571    0.643571    0.715000     0.007504
PD3775   PD        0.286429    0.715000    0.715000     0.005394
PD3776   PD        0.357857    0.715000    0.715000     0.005394
PD3777   PD        0.393571    0.715000    0.750714     0.005394
AU3778   AU        0.393571    0.750714    0.715000     0.007504
AU3779   AU        0.429286    0.715000    0.715000     0.007504
PD3780   PD        0.465000    0.715000    0.750714     0.005394
PD3781   PD        0.465000    0.750714    0.715000     0.005394
AU3782   AU        0.500714    0.715000    0.715000     0.007504
AU3783   AU        0.572143    0.715000    0.715000     0.007504
PD3784   PD        0.393571    0.179286    0.786429     0.005394
AU3785   AU        0.465000    0.179286    0.786429     0.007504
PD3786   PD        0.250714    0.250714    0.786429     0.005394
AU3787   AU        0.322143    0.250714    0.786429     0.007504
PD3788   PD        0.357857    0.215000    0.786429     0.005394
PD3789   PD        0.357857    0.250714    0.822143     0.005394
PD3790   PD        0.393571    0.250714    0.786429     0.005394
PD3791   PD        0.429286    0.215000    0.786429     0.005394
AU3792   AU        0.429286    0.250714    0.822143     0.007504
PD3793   PD        0.465000    0.250714    0.786429     0.005394
PD3794   PD        0.500714    0.215000    0.786429     0.005394
AU3795   AU        0.500714    0.250714    0.822143     0.007504
PD3796   PD        0.536429    0.250714    0.786429     0.005394
PD3797   PD        0.607857    0.250714    0.786429     0.005394
PD3798   PD        0.250714    0.322143    0.786429     0.005394
PD3799   PD        0.286429    0.286429    0.786429     0.005394
AU3800   AU        0.286429    0.322143    0.822143     0.007504
PD3801   PD        0.322143    0.286429    0.822143     0.005394
AU3802   AU        0.322143    0.322143    0.786429     0.007504
PD3803   PD        0.357857    0.286429    0.786429     0.005394
AU3804   AU        0.357857    0.322143    0.822143     0.007504
AU3805   AU        0.393571    0.286429    0.822143     0.007504
AU3806   AU        0.393571    0.322143    0.786429     0.007504
PD3807   PD        0.429286    0.286429    0.786429     0.005394
AU3808   AU        0.429286    0.322143    0.822143     0.007504
PD3809   PD        0.465000    0.286429    0.822143     0.005394
AU3810   AU        0.465000    0.322143    0.786429     0.007504
AU3811   AU        0.500714    0.286429    0.786429     0.007504
AU3812   AU        0.500714    0.322143    0.822143     0.007504
PD3813   PD        0.536429    0.286429    0.822143     0.005394
PD3814   PD        0.536429    0.322143    0.786429     0.005394
PD3815   PD        0.572143    0.286429    0.786429     0.005394
AU3816   AU        0.572143    0.322143    0.822143     0.007504
AU3817   AU        0.607857    0.322143    0.786429     0.007504
PD3818   PD        0.179286    0.393571    0.786429     0.005394
AU3819   AU        0.215000    0.357857    0.786429     0.007504
PD3820   PD        0.250714    0.357857    0.822143     0.005394
AU3821   AU        0.250714    0.393571    0.786429     0.007504
AU3822   AU        0.286429    0.357857    0.786429     0.007504
AU3823   AU        0.286429    0.393571    0.822143     0.007504
AU3824   AU        0.322143    0.357857    0.822143     0.007504
AU3825   AU        0.322143    0.393571    0.786429     0.007504
PD3826   PD        0.357857    0.357857    0.786429     0.005394
PD3827   PD        0.357857    0.393571    0.822143     0.005394
AU3828   AU        0.393571    0.357857    0.822143     0.007504
AU3829   AU        0.393571    0.393571    0.786429     0.007504
AU3830   AU        0.429286    0.357857    0.786429     0.007504
PD3831   PD        0.429286    0.393571    0.822143     0.005394
PD3832   PD        0.465000    0.357857    0.822143     0.005394
AU3833   AU        0.465000    0.393571    0.786429     0.007504
PD3834   PD        0.500714    0.357857    0.786429     0.005394
PD3835   PD        0.500714    0.393571    0.822143     0.005394
PD3836   PD        0.536429    0.357857    0.822143     0.005394
AU3837   AU        0.536429    0.393571    0.786429     0.007504
PD3838   PD        0.572143    0.357857    0.786429     0.005394
PD3839   PD        0.572143    0.393571    0.822143     0.005394
PD3840   PD        0.607857    0.357857    0.822143     0.005394
PD3841   PD        0.607857    0.393571    0.786429     0.005394
AU3842   AU        0.643571    0.357857    0.786429     0.007504
PD3843   PD        0.679286    0.393571    0.786429     0.005394
PD3844   PD        0.179286    0.465000    0.786429     0.005394
PD3845   PD        0.215000    0.429286    0.786429     0.005394
PD3846   PD        0.250714    0.429286    0.822143     0.005394
PD3847   PD        0.250714    0.465000    0.786429     0.005394
AU3848   AU        0.286429    0.429286    0.786429     0.007504
AU3849   AU        0.286429    0.465000    0.822143     0.007504
AU3850   AU        0.322143    0.429286    0.822143     0.007504
AU3851   AU        0.322143    0.465000    0.786429     0.007504
AU3852   AU        0.357857    0.429286    0.786429     0.007504
AU3853   AU        0.357857    0.465000    0.822143     0.007504
PD3854   PD        0.393571    0.429286    0.822143     0.005394
AU3855   AU        0.393571    0.465000    0.786429     0.007504
PD3856   PD        0.429286    0.429286    0.786429     0.005394
PD3857   PD        0.429286    0.465000    0.822143     0.005394
PD3858   PD        0.465000    0.429286    0.822143     0.005394
PD3859   PD        0.465000    0.465000    0.786429     0.005394
PD3860   PD        0.500714    0.429286    0.786429     0.005394
PD3861   PD        0.500714    0.465000    0.822143     0.005394
AU3862   AU        0.536429    0.429286    0.822143     0.007504
AU3863   AU        0.536429    0.465000    0.786429     0.007504
PD3864   PD        0.572143    0.429286    0.786429     0.005394
PD3865   PD        0.572143    0.465000    0.822143     0.005394
AU3866   AU        0.607857    0.429286    0.822143     0.007504
AU3867   AU        0.607857    0.465000    0.786429     0.007504
AU3868   AU        0.643571    0.429286    0.786429     0.007504
PD3869   PD        0.679286    0.465000    0.786429     0.005394
AU3870   AU        0.215000    0.500714    0.786429     0.007504
AU3871   AU        0.250714    0.500714    0.822143     0.007504
AU3872   AU        0.250714    0.536429    0.786429     0.007504
AU3873   AU        0.286429    0.500714    0.786429     0.007504
AU3874   AU        0.286429    0.536429    0.822143     0.007504
PD3875   PD        0.322143    0.500714    0.822143     0.005394
AU3876   AU        0.322143    0.536429    0.786429     0.007504
PD3877   PD        0.357857    0.500714    0.786429     0.005394
AU3878   AU        0.357857    0.536429    0.822143     0.007504
PD3879   PD        0.393571    0.500714    0.822143     0.005394
PD3880   PD        0.393571    0.536429    0.786429     0.005394
AU3881   AU        0.429286    0.500714    0.786429     0.007504
AU3882   AU        0.429286    0.536429    0.822143     0.007504
AU3883   AU        0.465000    0.500714    0.822143     0.007504
AU3884   AU        0.465000    0.536429    0.786429     0.007504
PD3885   PD        0.500714    0.500714    0.786429     0.005394
AU3886   AU        0.500714    0.536429    0.822143     0.007504
PD3887   PD        0.536429    0.500714    0.822143     0.005394
AU3888   AU        0.536429    0.536429    0.786429     0.007504
AU3889   AU        0.572143    0.500714    0.786429     0.007504
PD3890   PD        0.572143    0.536429    0.822143     0.005394
PD3891   PD        0.607857    0.500714    0.822143     0.005394
PD3892   PD        0.607857    0.536429    0.786429     0.005394
PD3893   PD        0.643571    0.500714    0.786429     0.005394
AU3894   AU        0.250714    0.607857    0.786429     0.007504
AU3895   AU        0.286429    0.572143    0.786429     0.007504
AU3896   AU        0.322143    0.572143    0.822143     0.007504
AU3897   AU        0.322143    0.607857    0.786429     0.007504
AU3898   AU        0.357857    0.572143    0.786429     0.007504
AU3899   AU        0.357857    0.607857    0.822143     0.007504
AU3900   AU        0.393571    0.572143    0.822143     0.007504
PD3901   PD        0.393571    0.607857    0.786429     0.005394
PD3902   PD        0.429286    0.572143    0.786429     0.005394
PD3903   PD        0.429286    0.607857    0.822143     0.005394
AU3904   AU        0.465000    0.572143    0.822143     0.007504
AU3905   AU        0.465000    0.607857    0.786429     0.007504
AU3906   AU        0.500714    0.572143    0.786429     0.007504
AU3907   AU        0.500714    0.607857    0.822143     0.007504
AU3908   AU        0.536429    0.572143    0.822143     0.007504
AU3909   AU        0.536429    0.607857    0.786429     0.007504
AU3910   AU        0.572143    0.572143    0.786429     0.007504
PD3911   PD        0.607857    0.607857    0.786429     0.005394
AU3912   AU        0.357857    0.643571    0.786429     0.007504
PD3913   PD        0.393571    0.679286    0.786429     0.005394
PD3914   PD        0.429286    0.643571    0.786429     0.005394
PD3915   PD        0.465000    0.679286    0.786429     0.005394
AU3916   AU        0.500714    0.643571    0.786429     0.007504
PD3917   PD        0.393571    0.393571    0.857857     0.005394
PD3918   PD        0.429286    0.357857    0.857857     0.005394
PD3919   PD        0.465000    0.393571    0.857857     0.005394
AU3920   AU        0.357857    0.429286    0.857857     0.007504
AU3921   AU        0.393571    0.465000    0.857857     0.007504
AU3922   AU        0.429286    0.429286    0.857857     0.007504
PD3923   PD        0.465000    0.465000    0.857857     0.005394
PD3924   PD        0.500714    0.429286    0.857857     0.005394
AU3925   AU        0.429286    0.500714    0.857857     0.007504
