data_00001
_audit_creation_method   'DISCUS'

_data_chemical_name_common 'Au.cell: Pearson 85'

_cell_length_a             53.0257
_cell_length_b             53.0257
_cell_length_c             53.0257
_cell_angle_alpha     90.0000
_cell_angle_beta      90.0000
_cell_angle_gamma     90.0000

_symmetry_space_group_name_H-M   'P1              '

loop_
_atom_site_label
_atom_site_symbol
_atom_site_fract_x
_atom_site_fract_y
_atom_site_fract_z
_atom_site_u_iso_or_equiv
PT1   PT        0.386263    0.267279    0.039248     0.004505
PT2   PT        0.460068    0.264691    0.039340     0.004505
PT3   PT        0.538639    0.268122    0.041112     0.004505
AU4   AU        0.305848    0.341229    0.042275     0.007504
PT5   PT        0.345995    0.305917    0.041075     0.004505
PT6   PT        0.384726    0.342581    0.040222     0.004505
PT7   PT        0.423908    0.303528    0.040884     0.004505
AU8   AU        0.462975    0.343792    0.040763     0.007504
PT9   PT        0.500862    0.302266    0.040033     0.004505
PT10   PT        0.538032    0.343414    0.041021     0.004505
AU11   AU        0.576048    0.306461    0.042040     0.007504
PT12   PT        0.615529    0.341963    0.040095     0.004505
PT13   PT        0.270798    0.380744    0.038369     0.004505
AU14   AU        0.307190    0.419652    0.040984     0.007504
PT15   PT        0.344378    0.377892    0.039648     0.004505
PT16   PT        0.386434    0.418609    0.039302     0.004505
PT17   PT        0.423574    0.381242    0.041928     0.004505
PT18   PT        0.424303    0.419437    0.004405     0.004505
AU19   AU        0.461900    0.382999    0.004162     0.007504
PT20   PT        0.461974    0.420594    0.038562     0.004505
PT21   PT        0.499592    0.381330    0.040900     0.004505
PT22   PT        0.499672    0.419186    0.004556     0.004505
PT23   PT        0.538436    0.419384    0.040803     0.004505
AU24   AU        0.577666    0.379332    0.040290     0.007504
PT25   PT        0.616911    0.417939    0.040762     0.004505
PT26   PT        0.653225    0.379900    0.038113     0.004505
PT27   PT        0.268295    0.458653    0.041653     0.004505
PT28   PT        0.307239    0.498958    0.042154     0.004505
PT29   PT        0.343995    0.458017    0.041397     0.004505
PT30   PT        0.389025    0.457174    0.002486     0.004505
PT31   PT        0.381853    0.495658    0.039683     0.004505
AU32   AU        0.421749    0.458869    0.039677     0.007504
PT33   PT        0.423820    0.497741    0.003142     0.004505
AU34   AU        0.460546    0.457811    0.002444     0.007504
PT35   PT        0.460699    0.494770    0.040947     0.004505
PT36   PT        0.498997    0.457742    0.039240     0.004505
PT37   PT        0.500629    0.498096    0.004367     0.004505
PT38   PT        0.535410    0.456989    0.003166     0.004505
AU39   AU        0.537970    0.495063    0.040599     0.007504
AU40   AU        0.576183    0.457095    0.040529     0.007504
PT41   PT        0.617142    0.496717    0.040285     0.004505
AU42   AU        0.695072    0.461174    0.000769     0.007504
AU43   AU        0.269448    0.535931    0.041175     0.007504
PT44   PT        0.307321    0.574881    0.040954     0.004505
AU45   AU        0.346528    0.536303    0.041178     0.007504
AU46   AU        0.381088    0.575642    0.039262     0.007504
PT47   PT        0.384196    0.532872    0.005874     0.004505
PT48   PT        0.464059    0.536135    0.001920     0.004505
PT49   PT        0.461665    0.573257    0.039744     0.004505
PT50   PT        0.502134    0.534161    0.041746     0.004505
PT51   PT        0.541212    0.573373    0.040459     0.004505
PT52   PT        0.579720    0.535451    0.042082     0.004505
PT53   PT        0.615906    0.573104    0.042225     0.004505
PT54   PT        0.654314    0.534787    0.041004     0.004505
PT55   PT        0.342621    0.611467    0.040474     0.004505
PT56   PT        0.384144    0.729353    0.039527     0.004505
PT57   PT        0.422295    0.613048    0.040493     0.004505
PT58   PT        0.462326    0.648867    0.040900     0.004505
PT59   PT        0.500618    0.613263    0.040862     0.004505
PT60   PT        0.540079    0.648316    0.039879     0.004505
AU61   AU        0.578389    0.611782    0.041777     0.007504
PT62   PT        0.306277    0.190759    0.115605     0.004505
PT63   PT        0.383580    0.188915    0.116153     0.004505
PT64   PT        0.420768    0.150236    0.116052     0.004505
PT65   PT        0.424608    0.189638    0.078058     0.004505
AU66   AU        0.461076    0.189410    0.114826     0.007504
AU67   AU        0.501611    0.151578    0.114452     0.007504
PT68   PT        0.502667    0.188708    0.076259     0.004505
AU69   AU        0.539521    0.191599    0.115366     0.007504
PT70   PT        0.619001    0.188436    0.118231     0.004505
AU71   AU        0.232204    0.265740    0.113824     0.007504
AU72   AU        0.270266    0.227840    0.115276     0.007504
AU73   AU        0.271024    0.266699    0.078873     0.007504
PT74   PT        0.310052    0.265120    0.114856     0.004505
PT75   PT        0.347778    0.227133    0.113745     0.004505
PT76   PT        0.347087    0.267524    0.077134     0.004505
PT77   PT        0.386598    0.227567    0.077871     0.004505
AU78   AU        0.385630    0.264503    0.113022     0.007504
PT79   PT        0.422989    0.227356    0.114888     0.004505
PT80   PT        0.422817    0.264096    0.076656     0.004505
AU81   AU        0.461803    0.228189    0.076695     0.007504
AU82   AU        0.461611    0.265690    0.115222     0.007504
AU83   AU        0.499332    0.226157    0.113763     0.007504
AU84   AU        0.501228    0.266046    0.076299     0.007504
PT85   PT        0.537903    0.227304    0.076408     0.004505
AU86   AU        0.538200    0.263516    0.114165     0.007504
AU87   AU        0.578841    0.228757    0.113889     0.007504
PT88   PT        0.577307    0.266693    0.077179     0.004505
AU89   AU        0.614518    0.266532    0.115560     0.007504
AU90   AU        0.653445    0.226671    0.116129     0.007504
AU91   AU        0.654395    0.265788    0.079027     0.007504
PT92   PT        0.692929    0.266086    0.115109     0.004505
PT93   PT        0.193546    0.302947    0.115471     0.004505
PT94   PT        0.231390    0.343162    0.115457     0.004505
AU95   AU        0.268957    0.302704    0.116030     0.007504
AU96   AU        0.268962    0.343824    0.076016     0.007504
PT97   PT        0.307548    0.303631    0.077315     0.004505
AU98   AU        0.307546    0.342701    0.114944     0.007504
PT99   PT        0.345620    0.304438    0.114972     0.004505
PT100   PT        0.344411    0.343829    0.078078     0.004505
PT101   PT        0.383893    0.304893    0.077888     0.004505
PT102   PT        0.382825    0.341381    0.114194     0.004505
PT103   PT        0.422380    0.301883    0.113955     0.004505
PT104   PT        0.422099    0.342065    0.078633     0.004505
AU105   AU        0.460880    0.303803    0.076287     0.007504
PT106   PT        0.461809    0.340488    0.114148     0.004505
AU107   AU        0.499109    0.303106    0.114340     0.007504
PT108   PT        0.500325    0.341527    0.079115     0.004505
AU109   AU        0.538656    0.303990    0.077582     0.007504
PT110   PT        0.540217    0.342295    0.113808     0.004505
PT111   PT        0.578684    0.304303    0.116174     0.004505
PT112   PT        0.577705    0.342184    0.077567     0.004505
PT113   PT        0.615622    0.302822    0.078344     0.004505
AU114   AU        0.616945    0.341759    0.114683     0.007504
AU115   AU        0.654428    0.304167    0.115360     0.007504
PT116   PT        0.654153    0.341778    0.078295     0.004505
PT117   PT        0.692709    0.339672    0.114638     0.004505
PT118   PT        0.730739    0.302490    0.116056     0.004505
PT119   PT        0.153896    0.420363    0.114987     0.004505
PT120   PT        0.192006    0.381754    0.117088     0.004505
PT121   PT        0.192452    0.421467    0.078213     0.004505
PT122   PT        0.232179    0.383737    0.077352     0.004505
PT123   PT        0.231410    0.418472    0.115145     0.004505
AU124   AU        0.269324    0.381483    0.113552     0.007504
AU125   AU        0.270375    0.420958    0.077097     0.007504
PT126   PT        0.307619    0.379927    0.076374     0.004505
AU127   AU        0.307318    0.419329    0.113771     0.007504
AU128   AU        0.344355    0.380973    0.113372     0.007504
AU129   AU        0.346713    0.418357    0.075644     0.007504
AU130   AU        0.383730    0.380424    0.076931     0.007504
AU131   AU        0.384372    0.420821    0.113666     0.007504
AU132   AU        0.421784    0.382211    0.114395     0.007504
PT133   PT        0.423511    0.419257    0.076369     0.004505
AU134   AU        0.461740    0.382093    0.076649     0.007504
PT135   PT        0.460390    0.418434    0.115401     0.004505
PT136   PT        0.500136    0.378400    0.114343     0.004505
PT137   PT        0.501732    0.419112    0.075840     0.004505
PT138   PT        0.540715    0.381579    0.077535     0.004505
PT139   PT        0.539903    0.419744    0.113821     0.004505
PT140   PT        0.578589    0.380653    0.114201     0.004505
PT141   PT        0.578706    0.418728    0.077312     0.004505
PT142   PT        0.616401    0.378127    0.076583     0.004505
PT143   PT        0.615841    0.417922    0.115905     0.004505
PT144   PT        0.654481    0.382418    0.115155     0.004505
PT145   PT        0.652767    0.419053    0.079174     0.004505
PT146   PT        0.691086    0.379979    0.079515     0.004505
PT147   PT        0.693046    0.418522    0.116255     0.004505
PT148   PT        0.729166    0.380650    0.115356     0.004505
PT149   PT        0.730538    0.418945    0.077338     0.004505
AU150   AU        0.767180    0.419064    0.114361     0.007504
AU151   AU        0.154169    0.496483    0.115077     0.007504
PT152   PT        0.193437    0.458038    0.116232     0.004505
PT153   PT        0.189767    0.494994    0.078039     0.004505
AU154   AU        0.229601    0.457175    0.078379     0.007504
AU155   AU        0.230066    0.497195    0.114452     0.007504
PT156   PT        0.265891    0.458214    0.114743     0.004505
PT157   PT        0.268635    0.496654    0.078247     0.004505
PT158   PT        0.306147    0.458505    0.076656     0.004505
AU159   AU        0.305392    0.495385    0.114828     0.007504
AU160   AU        0.345913    0.457381    0.112356     0.007504
AU161   AU        0.345076    0.496794    0.076988     0.007504
PT162   PT        0.383671    0.459625    0.076724     0.004505
AU163   AU        0.383730    0.498213    0.112324     0.007504
PT164   PT        0.422056    0.460036    0.113646     0.004505
AU165   AU        0.424661    0.495785    0.077246     0.007504
AU166   AU        0.461603    0.455561    0.076014     0.007504
AU167   AU        0.464048    0.498019    0.112626     0.007504
PT168   PT        0.500138    0.455859    0.112834     0.004505
AU169   AU        0.501571    0.496310    0.076432     0.007504
PT170   PT        0.539127    0.457907    0.077949     0.004505
AU171   AU        0.539469    0.497353    0.114661     0.007504
AU172   AU        0.578608    0.457800    0.113946     0.007504
AU173   AU        0.578670    0.497058    0.077223     0.007504
AU174   AU        0.615272    0.457922    0.075717     0.007504
AU175   AU        0.615217    0.496412    0.114067     0.007504
AU176   AU        0.654300    0.457543    0.115386     0.007504
AU177   AU        0.655492    0.493580    0.076381     0.007504
AU178   AU        0.691989    0.456058    0.079479     0.007504
PT179   PT        0.694970    0.495886    0.116017     0.004505
AU180   AU        0.731181    0.458374    0.115968     0.007504
PT181   PT        0.732161    0.495120    0.077349     0.004505
PT182   PT        0.768084    0.495413    0.117404     0.004505
PT183   PT        0.193913    0.534113    0.115062     0.004505
PT184   PT        0.232199    0.534465    0.077913     0.004505
PT185   PT        0.229767    0.573236    0.116216     0.004505
PT186   PT        0.268821    0.535103    0.114933     0.004505
PT187   PT        0.270753    0.572629    0.078697     0.004505
PT188   PT        0.305549    0.533415    0.077873     0.004505
PT189   PT        0.307351    0.574065    0.115901     0.004505
PT190   PT        0.345654    0.534270    0.113749     0.004505
PT191   PT        0.344825    0.574692    0.077305     0.004505
PT192   PT        0.384444    0.534396    0.076018     0.004505
AU193   AU        0.381433    0.572769    0.113679     0.007504
AU194   AU        0.423362    0.536209    0.113946     0.007504
AU195   AU        0.420336    0.574572    0.076974     0.007504
PT196   PT        0.462491    0.534973    0.075763     0.004505
AU197   AU        0.460826    0.571982    0.113553     0.007504
PT198   PT        0.502809    0.534345    0.114084     0.004505
PT199   PT        0.500077    0.573961    0.077080     0.004505
AU200   AU        0.540426    0.533011    0.077558     0.007504
PT201   PT        0.537254    0.573992    0.113141     0.004505
AU202   AU        0.577819    0.534882    0.115390     0.007504
PT203   PT        0.577778    0.574209    0.077823     0.004505
AU204   AU        0.616089    0.534005    0.078209     0.007504
PT205   PT        0.615693    0.574634    0.115792     0.004505
PT206   PT        0.655520    0.534711    0.115516     0.004505
AU207   AU        0.653615    0.571907    0.079437     0.007504
PT208   PT        0.691482    0.534874    0.078448     0.004505
AU209   AU        0.692580    0.573804    0.115432     0.007504
PT210   PT        0.731410    0.532264    0.115630     0.004505
PT211   PT        0.190914    0.611880    0.116161     0.004505
PT212   PT        0.230719    0.648610    0.114242     0.004505
PT213   PT        0.269106    0.613216    0.115547     0.004505
PT214   PT        0.268789    0.652685    0.078048     0.004505
AU215   AU        0.307684    0.612008    0.078071     0.007504
PT216   PT        0.306417    0.650807    0.115287     0.004505
AU217   AU        0.344861    0.613542    0.115491     0.007504
PT218   PT        0.345924    0.649351    0.078528     0.004505
AU219   AU        0.384925    0.612106    0.077213     0.007504
PT220   PT        0.385242    0.650371    0.114355     0.004505
PT221   PT        0.423854    0.610695    0.113815     0.004505
PT222   PT        0.424558    0.649504    0.075397     0.004505
PT223   PT        0.461463    0.611524    0.077300     0.004505
PT224   PT        0.459599    0.650064    0.112818     0.004505
PT225   PT        0.499408    0.611938    0.114900     0.004505
PT226   PT        0.500589    0.649748    0.077644     0.004505
AU227   AU        0.539691    0.612754    0.077133     0.007504
PT228   PT        0.539062    0.650689    0.115255     0.004505
PT229   PT        0.578574    0.611693    0.115149     0.004505
PT230   PT        0.575628    0.649470    0.078922     0.004505
PT231   PT        0.616573    0.611631    0.077538     0.004505
AU232   AU        0.614063    0.650344    0.113998     0.007504
AU233   AU        0.651774    0.611511    0.116355     0.007504
PT234   PT        0.653114    0.649642    0.078679     0.004505
AU235   AU        0.691670    0.648920    0.118121     0.007504
AU236   AU        0.731755    0.611572    0.117810     0.007504
PT237   PT        0.269024    0.688761    0.115699     0.004505
PT238   PT        0.307358    0.726195    0.116209     0.004505
PT239   PT        0.346784    0.688497    0.115883     0.004505
AU240   AU        0.386367    0.687771    0.078677     0.007504
PT241   PT        0.385675    0.727771    0.117244     0.004505
AU242   AU        0.425299    0.689082    0.113754     0.007504
PT243   PT        0.464147    0.729522    0.041235     0.004505
PT244   PT        0.463675    0.686824    0.076039     0.004505
AU245   AU        0.463471    0.727578    0.117241     0.007504
PT246   PT        0.499450    0.688946    0.115397     0.004505
PT247   PT        0.500780    0.725463    0.077763     0.004505
AU248   AU        0.536791    0.688284    0.077401     0.007504
PT249   PT        0.536715    0.726129    0.116751     0.004505
PT250   PT        0.575707    0.688413    0.116065     0.004505
PT251   PT        0.617481    0.724822    0.116218     0.004505
PT252   PT        0.654730    0.688150    0.117296     0.004505
PT253   PT        0.424324    0.764490    0.115832     0.004505
AU254   AU        0.500586    0.765706    0.115645     0.007504
PT255   PT        0.305970    0.112926    0.191453     0.004505
PT256   PT        0.384654    0.112842    0.190959     0.004505
PT257   PT        0.421085    0.076461    0.192822     0.004505
PT258   PT        0.423461    0.113807    0.153814     0.004505
PT259   PT        0.461648    0.113580    0.191271     0.004505
PT260   PT        0.499471    0.075928    0.190298     0.004505
AU261   AU        0.499225    0.112876    0.152714     0.007504
PT262   PT        0.538420    0.113364    0.190009     0.004505
PT263   PT        0.616662    0.111163    0.192448     0.004505
PT264   PT        0.231087    0.189402    0.191283     0.004505
PT265   PT        0.268128    0.151747    0.190138     0.004505
PT266   PT        0.267526    0.188222    0.151840     0.004505
AU267   AU        0.308174    0.153360    0.153862     0.007504
PT268   PT        0.304462    0.188542    0.189773     0.004505
AU269   AU        0.345166    0.149866    0.192059     0.007504
PT270   PT        0.347534    0.188574    0.154081     0.004505
PT271   PT        0.385619    0.149856    0.154052     0.004505
PT272   PT        0.383475    0.187348    0.191184     0.004505
AU273   AU        0.423175    0.150590    0.191842     0.007504
PT274   PT        0.423350    0.187742    0.151928     0.004505
AU275   AU        0.461928    0.152255    0.152182     0.007504
AU276   AU        0.461245    0.187249    0.191078     0.007504
PT277   PT        0.499217    0.149802    0.188786     0.004505
PT278   PT        0.498860    0.190596    0.151054     0.004505
PT279   PT        0.537283    0.150932    0.152186     0.004505
PT280   PT        0.538044    0.185336    0.190593     0.004505
AU281   AU        0.577348    0.149494    0.191927     0.007504
AU282   AU        0.578332    0.187312    0.156113     0.007504
AU283   AU        0.616327    0.150881    0.154064     0.007504
PT284   PT        0.616284    0.186741    0.192465     0.004505
PT285   PT        0.653185    0.149262    0.191649     0.004505
PT286   PT        0.654420    0.189282    0.155634     0.004505
AU287   AU        0.693190    0.188787    0.193009     0.007504
AU288   AU        0.155996    0.267099    0.191331     0.007504
AU289   AU        0.193982    0.227929    0.190800     0.007504
AU290   AU        0.194100    0.266690    0.153231     0.007504
PT291   PT        0.231430    0.229208    0.152060     0.004505
PT292   PT        0.228732    0.265175    0.192238     0.004505
PT293   PT        0.268119    0.226464    0.191285     0.004505
PT294   PT        0.266715    0.264720    0.154168     0.004505
PT295   PT        0.307765    0.227930    0.151264     0.004505
AU296   AU        0.305939    0.264411    0.191170     0.007504
AU297   AU        0.345529    0.226212    0.191258     0.007504
AU298   AU        0.345232    0.265756    0.152323     0.007504
PT299   PT        0.384745    0.225869    0.151891     0.004505
PT300   PT        0.386375    0.263543    0.188855     0.004505
AU301   AU        0.423638    0.225704    0.189707     0.007504
PT302   PT        0.423484    0.265912    0.152103     0.004505
PT303   PT        0.462012    0.228017    0.151222     0.004505
AU304   AU        0.462405    0.266240    0.189687     0.007504
PT305   PT        0.498736    0.226403    0.189475     0.004505
AU306   AU        0.499934    0.265012    0.152046     0.007504
PT307   PT        0.540212    0.226651    0.152843     0.004505
AU308   AU        0.540388    0.266929    0.188675     0.007504
PT309   PT        0.577313    0.225604    0.190314     0.004505
AU310   AU        0.579059    0.264439    0.153747     0.007504
AU311   AU        0.617160    0.225137    0.153895     0.007504
PT312   PT        0.614958    0.262007    0.189745     0.004505
PT313   PT        0.657798    0.227163    0.191009     0.004505
PT314   PT        0.654412    0.264251    0.152715     0.004505
PT315   PT        0.692310    0.228986    0.152482     0.004505
PT316   PT        0.693181    0.265445    0.192781     0.004505
PT317   PT        0.730021    0.228364    0.190742     0.004505
PT318   PT        0.729284    0.266748    0.153820     0.004505
PT319   PT        0.769441    0.265438    0.191755     0.004505
PT320   PT        0.116644    0.305074    0.192315     0.004505
PT321   PT        0.153850    0.302059    0.154485     0.004505
PT322   PT        0.153865    0.341933    0.190803     0.004505
PT323   PT        0.192733    0.304873    0.189547     0.004505
PT324   PT        0.192991    0.343077    0.153374     0.004505
AU325   AU        0.231945    0.304465    0.152102     0.007504
AU326   AU        0.231104    0.341229    0.190014     0.007504
AU327   AU        0.267967    0.303539    0.190589     0.007504
PT328   PT        0.268106    0.341151    0.152255     0.004505
PT329   PT        0.306919    0.302606    0.152690     0.004505
AU330   AU        0.307546    0.341749    0.191067     0.007504
AU331   AU        0.345582    0.302945    0.189122     0.007504
AU332   AU        0.344232    0.342917    0.150930     0.007504
PT333   PT        0.384314    0.302852    0.153305     0.004505
AU334   AU        0.382703    0.343734    0.187932     0.007504
AU335   AU        0.423174    0.303046    0.190720     0.007504
AU336   AU        0.422441    0.341068    0.151942     0.007504
PT337   PT        0.460325    0.304134    0.151612     0.004505
PT338   PT        0.461796    0.340797    0.190227     0.004505
PT339   PT        0.501458    0.305234    0.188543     0.004505
PT340   PT        0.502586    0.340997    0.149841     0.004505
AU341   AU        0.539170    0.301430    0.150479     0.007504
PT342   PT        0.540656    0.341318    0.188466     0.004505
PT343   PT        0.576640    0.302764    0.190374     0.004505
AU344   AU        0.578890    0.341439    0.152824     0.007504
PT345   PT        0.616759    0.303679    0.152315     0.004505
PT346   PT        0.615099    0.341249    0.190235     0.004505
PT347   PT        0.655104    0.300852    0.190201     0.004505
AU348   AU        0.653762    0.341792    0.151651     0.007504
AU349   AU        0.692428    0.302532    0.153258     0.007504
AU350   AU        0.692681    0.340829    0.189651     0.007504
PT351   PT        0.729876    0.302919    0.191172     0.004505
PT352   PT        0.729704    0.342381    0.153578     0.004505
PT353   PT        0.767390    0.301483    0.154374     0.004505
PT354   PT        0.769809    0.342251    0.189625     0.004505
AU355   AU        0.805714    0.302605    0.191087     0.007504
PT356   PT        0.078247    0.420304    0.191449     0.004505
PT357   PT        0.115352    0.383705    0.192712     0.004505
PT358   PT        0.117527    0.420409    0.154368     0.004505
PT359   PT        0.154365    0.384065    0.154065     0.004505
AU360   AU        0.153827    0.420271    0.191437     0.007504
AU361   AU        0.190761    0.380714    0.190278     0.007504
AU362   AU        0.189813    0.419440    0.152585     0.007504
PT363   PT        0.230242    0.381823    0.152306     0.004505
PT364   PT        0.227677    0.420477    0.190442     0.004505
AU365   AU        0.267295    0.380820    0.191360     0.007504
PT366   PT        0.269948    0.420079    0.151276     0.004505
AU367   AU        0.304072    0.380537    0.152888     0.007504
PT368   PT        0.305201    0.420846    0.190589     0.004505
AU369   AU        0.343733    0.382175    0.190835     0.007504
AU370   AU        0.344196    0.418787    0.152882     0.007504
AU371   AU        0.383306    0.381324    0.149407     0.007504
AU372   AU        0.382688    0.421731    0.189171     0.007504
PT373   PT        0.423653    0.381167    0.188590     0.004505
PT374   PT        0.420782    0.420851    0.153562     0.004505
PT375   PT        0.462158    0.378151    0.151000     0.004505
PT376   PT        0.457913    0.419144    0.189126     0.004505
AU377   AU        0.503013    0.377166    0.190980     0.007504
PT378   PT        0.496617    0.420108    0.152363     0.004505
PT379   PT        0.541310    0.381826    0.152574     0.004505
PT380   PT        0.539127    0.420407    0.189792     0.004505
AU381   AU        0.578417    0.380710    0.189056     0.007504
AU382   AU        0.578355    0.417342    0.151938     0.007504
AU383   AU        0.616597    0.379129    0.152243     0.007504
AU384   AU        0.617176    0.418368    0.190842     0.007504
AU385   AU        0.653184    0.381040    0.191262     0.007504
PT386   PT        0.654202    0.419595    0.152734     0.004505
AU387   AU        0.693217    0.379928    0.152336     0.007504
AU388   AU        0.691764    0.418325    0.189958     0.007504
PT389   PT        0.731639    0.380195    0.188881     0.004505
PT390   PT        0.731113    0.418286    0.152670     0.004505
PT391   PT        0.767783    0.381587    0.151961     0.004505
PT392   PT        0.769497    0.418503    0.192283     0.004505
PT393   PT        0.808560    0.380841    0.192592     0.004505
PT394   PT        0.806638    0.418721    0.154775     0.004505
PT395   PT        0.844866    0.418568    0.190446     0.004505
PT396   PT        0.078197    0.498678    0.191444     0.004505
AU397   AU        0.115814    0.459647    0.190801     0.007504
PT398   PT        0.115571    0.498079    0.154150     0.004505
PT399   PT        0.152514    0.456930    0.153663     0.004505
AU400   AU        0.152210    0.496969    0.191983     0.007504
AU401   AU        0.192507    0.458525    0.190152     0.007504
AU402   AU        0.191871    0.495645    0.152320     0.007504
PT403   PT        0.230259    0.459176    0.152335     0.004505
PT404   PT        0.229085    0.498629    0.190598     0.004505
PT405   PT        0.267774    0.456076    0.191738     0.004505
AU406   AU        0.268561    0.496010    0.151587     0.007504
AU407   AU        0.307934    0.457162    0.152596     0.007504
AU408   AU        0.306404    0.497446    0.190830     0.007504
PT409   PT        0.345741    0.458986    0.188983     0.004505
AU410   AU        0.344558    0.495866    0.150270     0.007504
AU411   AU        0.384145    0.459480    0.150302     0.007504
AU412   AU        0.383244    0.496095    0.190409     0.007504
AU413   AU        0.422512    0.460030    0.191268     0.007504
PT414   PT        0.421927    0.498016    0.152426     0.004505
AU415   AU        0.459767    0.460524    0.151219     0.007504
AU416   AU        0.462044    0.497947    0.190763     0.007504
AU417   AU        0.502285    0.458739    0.191220     0.007504
AU418   AU        0.502491    0.495501    0.151558     0.007504
AU419   AU        0.541175    0.456142    0.153381     0.007504
AU420   AU        0.538329    0.496020    0.191078     0.007504
AU421   AU        0.578271    0.457308    0.190797     0.007504
AU422   AU        0.577789    0.494516    0.152016     0.007504
AU423   AU        0.615569    0.456991    0.152538     0.007504
AU424   AU        0.614259    0.497215    0.190438     0.007504
AU425   AU        0.653020    0.459055    0.190856     0.007504
PT426   PT        0.656546    0.496785    0.152357     0.004505
AU427   AU        0.692631    0.456041    0.151313     0.007504
AU428   AU        0.693424    0.496991    0.190508     0.007504
AU429   AU        0.732564    0.456734    0.189938     0.007504
PT430   PT        0.731508    0.494441    0.153933     0.004505
AU431   AU        0.769070    0.456975    0.151750     0.007504
AU432   AU        0.769568    0.496082    0.191532     0.007504
PT433   PT        0.806544    0.456621    0.192199     0.004505
PT434   PT        0.807216    0.494393    0.153681     0.004505
PT435   PT        0.843426    0.493593    0.191465     0.004505
PT436   PT        0.115924    0.534412    0.192737     0.004505
PT437   PT        0.155099    0.534327    0.154479     0.004505
PT438   PT        0.153584    0.573675    0.192321     0.004505
PT439   PT        0.191637    0.536014    0.191940     0.004505
PT440   PT        0.191304    0.574667    0.153505     0.004505
AU441   AU        0.229608    0.536187    0.151820     0.007504
AU442   AU        0.230438    0.573343    0.189155     0.007504
AU443   AU        0.266745    0.535983    0.190962     0.007504
AU444   AU        0.268234    0.574830    0.151699     0.007504
AU445   AU        0.307193    0.535574    0.152520     0.007504
AU446   AU        0.305854    0.573093    0.190346     0.007504
PT447   PT        0.343425    0.536567    0.191693     0.004505
AU448   AU        0.346366    0.573172    0.153391     0.007504
AU449   AU        0.383923    0.534966    0.150486     0.007504
AU450   AU        0.384570    0.572717    0.192270     0.007504
AU451   AU        0.423587    0.535552    0.189424     0.007504
AU452   AU        0.421866    0.573813    0.152871     0.007504
PT453   PT        0.464192    0.534793    0.149405     0.004505
AU454   AU        0.463454    0.573007    0.190048     0.007504
AU455   AU        0.501926    0.534901    0.191345     0.007504
AU456   AU        0.499503    0.573108    0.151931     0.007504
AU457   AU        0.539867    0.533212    0.150899     0.007504
PT458   PT        0.539157    0.573027    0.189409     0.004505
AU459   AU        0.578018    0.536368    0.190468     0.007504
PT460   PT        0.576705    0.573153    0.150744     0.004505
AU461   AU        0.616259    0.533259    0.152759     0.007504
AU462   AU        0.614340    0.575223    0.191413     0.007504
AU463   AU        0.655294    0.533783    0.190452     0.007504
AU464   AU        0.656615    0.571225    0.152358     0.007504
PT465   PT        0.694575    0.533875    0.152457     0.004505
AU466   AU        0.694193    0.572833    0.190695     0.007504
PT467   PT        0.730421    0.534525    0.190806     0.004505
PT468   PT        0.732514    0.572113    0.152261     0.004505
PT469   PT        0.769591    0.533824    0.155137     0.004505
AU470   AU        0.769323    0.574310    0.192169     0.007504
AU471   AU        0.806082    0.533905    0.192937     0.007504
PT472   PT        0.117974    0.611777    0.191925     0.004505
PT473   PT        0.156184    0.614021    0.154913     0.004505
PT474   PT        0.155297    0.649213    0.192265     0.004505
PT475   PT        0.192186    0.611682    0.192187     0.004505
PT476   PT        0.193500    0.649390    0.154927     0.004505
AU477   AU        0.229167    0.612085    0.153027     0.007504
PT478   PT        0.230022    0.649107    0.191077     0.004505
PT479   PT        0.268116    0.612840    0.190782     0.004505
AU480   AU        0.268602    0.651734    0.153357     0.007504
PT481   PT        0.305806    0.613964    0.153628     0.004505
PT482   PT        0.306546    0.651811    0.190599     0.004505
AU483   AU        0.344469    0.613584    0.191623     0.007504
PT484   PT        0.343956    0.651176    0.153532     0.004505
PT485   PT        0.384725    0.612418    0.153324     0.004505
AU486   AU        0.385479    0.650718    0.191846     0.007504
AU487   AU        0.422288    0.612120    0.190970     0.007504
AU488   AU        0.423885    0.651765    0.151502     0.007504
AU489   AU        0.461390    0.611726    0.152571     0.007504
PT490   PT        0.461376    0.652592    0.189484     0.004505
AU491   AU        0.500103    0.612398    0.189516     0.007504
AU492   AU        0.501169    0.650946    0.151655     0.007504
AU493   AU        0.538532    0.611261    0.150884     0.007504
PT494   PT        0.536218    0.651036    0.190619     0.004505
AU495   AU        0.574491    0.612330    0.192712     0.007504
AU496   AU        0.576514    0.649760    0.153059     0.007504
AU497   AU        0.615141    0.612674    0.153743     0.007504
PT498   PT        0.614411    0.651898    0.190268     0.004505
AU499   AU        0.653661    0.612463    0.190804     0.007504
AU500   AU        0.652802    0.649897    0.153775     0.007504
PT501   PT        0.692547    0.611164    0.152153     0.004505
AU502   AU        0.693055    0.650052    0.192637     0.007504
PT503   PT        0.731099    0.612670    0.191263     0.004505
AU504   AU        0.728912    0.650523    0.154690     0.007504
PT505   PT        0.767398    0.613078    0.153444     0.004505
PT506   PT        0.768584    0.650272    0.190777     0.004505
PT507   PT        0.806980    0.614602    0.193728     0.004505
AU508   AU        0.192496    0.687259    0.191822     0.007504
PT509   PT        0.230390    0.686198    0.151585     0.004505
PT510   PT        0.229120    0.726807    0.193029     0.004505
AU511   AU        0.268204    0.691021    0.191707     0.007504
PT512   PT        0.268071    0.726102    0.152949     0.004505
AU513   AU        0.307305    0.689009    0.152335     0.007504
PT514   PT        0.306621    0.726783    0.191769     0.004505
AU515   AU        0.345163    0.689360    0.190184     0.007504
PT516   PT        0.344648    0.727002    0.153987     0.004505
PT517   PT        0.383412    0.690539    0.153205     0.004505
PT518   PT        0.382474    0.727446    0.191711     0.004505
AU519   AU        0.421128    0.691149    0.191491     0.007504
PT520   PT        0.423588    0.727061    0.153757     0.004505
AU521   AU        0.461517    0.691093    0.152744     0.007504
AU522   AU        0.462253    0.727296    0.190964     0.007504
AU523   AU        0.499307    0.689923    0.191828     0.007504
PT524   PT        0.500953    0.726785    0.153494     0.004505
AU525   AU        0.536947    0.690193    0.153887     0.007504
PT526   PT        0.538864    0.726844    0.192483     0.004505
PT527   PT        0.577208    0.689503    0.190186     0.004505
AU528   AU        0.576991    0.727188    0.154105     0.007504
PT529   PT        0.615242    0.687604    0.151752     0.004505
PT530   PT        0.614692    0.726373    0.192902     0.004505
PT531   PT        0.654366    0.686382    0.189878     0.004505
AU532   AU        0.651922    0.725977    0.154051     0.007504
PT533   PT        0.691882    0.686956    0.153291     0.004505
PT534   PT        0.692736    0.725446    0.193449     0.004505
AU535   AU        0.730689    0.688169    0.194235     0.007504
PT536   PT        0.267586    0.763627    0.193212     0.004505
PT537   PT        0.305357    0.763150    0.155492     0.004505
PT538   PT        0.305527    0.801527    0.191517     0.004505
AU539   AU        0.343740    0.764521    0.190977     0.007504
PT540   PT        0.385063    0.765820    0.155665     0.004505
AU541   AU        0.386703    0.805342    0.193342     0.007504
PT542   PT        0.421918    0.765101    0.192108     0.004505
PT543   PT        0.424325    0.800238    0.155346     0.004505
PT544   PT        0.463251    0.764567    0.153018     0.004505
PT545   PT        0.459514    0.803124    0.191248     0.004505
PT546   PT        0.498230    0.766139    0.192383     0.004505
PT547   PT        0.498735    0.800383    0.154295     0.004505
AU548   AU        0.538075    0.764153    0.154574     0.007504
PT549   PT        0.535644    0.800586    0.192214     0.004505
PT550   PT        0.577525    0.764595    0.192277     0.004505
PT551   PT        0.615714    0.762827    0.155362     0.004505
PT552   PT        0.615401    0.801934    0.192674     0.004505
PT553   PT        0.653913    0.763046    0.191838     0.004505
PT554   PT        0.423512    0.841269    0.191715     0.004505
PT555   PT        0.498929    0.839544    0.191712     0.004505
PT556   PT        0.384034    0.039727    0.269475     0.004505
PT557   PT        0.462928    0.040690    0.267919     0.004505
PT558   PT        0.536410    0.037054    0.268625     0.004505
PT559   PT        0.230913    0.113972    0.268943     0.004505
PT560   PT        0.267958    0.077352    0.266082     0.004505
PT561   PT        0.268696    0.116346    0.227825     0.004505
PT562   PT        0.306721    0.112975    0.265044     0.004505
AU563   AU        0.346237    0.076977    0.269315     0.007504
AU564   AU        0.345969    0.113228    0.229081     0.007504
AU565   AU        0.385190    0.077608    0.232169     0.007504
AU566   AU        0.384626    0.113854    0.267861     0.007504
PT567   PT        0.423173    0.076468    0.267598     0.004505
PT568   PT        0.425347    0.114073    0.228521     0.004505
AU569   AU        0.462324    0.075367    0.228954     0.007504
PT570   PT        0.462804    0.112876    0.267766     0.004505
PT571   PT        0.501617    0.076303    0.268889     0.004505
PT572   PT        0.500054    0.111829    0.227673     0.004505
AU573   AU        0.536489    0.075973    0.229301     0.007504
PT574   PT        0.538738    0.111863    0.267955     0.004505
PT575   PT        0.573243    0.073433    0.268254     0.004505
AU576   AU        0.576221    0.110401    0.228592     0.007504
AU577   AU        0.615511    0.111522    0.269069     0.007504
PT578   PT        0.654326    0.075210    0.270119     0.004505
PT579   PT        0.655381    0.112899    0.231148     0.004505
PT580   PT        0.691807    0.114746    0.268405     0.004505
PT581   PT        0.152743    0.190541    0.266833     0.004505
PT582   PT        0.193698    0.153529    0.268345     0.004505
PT583   PT        0.190244    0.190174    0.227640     0.004505
AU584   AU        0.230556    0.151681    0.229669     0.007504
PT585   PT        0.230507    0.189918    0.266535     0.004505
PT586   PT        0.267476    0.150799    0.266679     0.004505
AU587   AU        0.267966    0.186854    0.230438     0.007504
AU588   AU        0.306996    0.150815    0.228894     0.007504
AU589   AU        0.306109    0.187261    0.268216     0.007504
AU590   AU        0.345532    0.148689    0.265924     0.007504
PT591   PT        0.345628    0.188504    0.228887     0.004505
PT592   PT        0.385157    0.149506    0.229393     0.004505
PT593   PT        0.385110    0.186962    0.265521     0.004505
PT594   PT        0.423677    0.150259    0.265201     0.004505
AU595   AU        0.423109    0.187470    0.227394     0.007504
PT596   PT        0.463111    0.149735    0.227668     0.004505
AU597   AU        0.461888    0.188445    0.263872     0.007504
PT598   PT        0.501153    0.150228    0.265836     0.004505
PT599   PT        0.498747    0.186255    0.226128     0.004505
AU600   AU        0.538073    0.149354    0.228210     0.007504
PT601   PT        0.536867    0.188099    0.265227     0.004505
AU602   AU        0.577855    0.147654    0.265685     0.007504
AU603   AU        0.576629    0.189415    0.229047     0.007504
PT604   PT        0.615291    0.151615    0.229352     0.004505
PT605   PT        0.616197    0.187647    0.266795     0.004505
PT606   PT        0.653427    0.152253    0.266684     0.004505
PT607   PT        0.655516    0.187673    0.227462     0.004505
PT608   PT        0.691555    0.151011    0.231251     0.004505
PT609   PT        0.692332    0.187701    0.266736     0.004505
PT610   PT        0.730892    0.149713    0.268133     0.004505
PT611   PT        0.731460    0.188688    0.230368     0.004505
PT612   PT        0.768086    0.190194    0.267971     0.004505
AU613   AU        0.079819    0.266969    0.270329     0.007504
PT614   PT        0.116615    0.226159    0.268613     0.004505
PT615   PT        0.116852    0.264759    0.229197     0.004505
PT616   PT        0.156634    0.228614    0.229069     0.004505
AU617   AU        0.153232    0.264941    0.267628     0.007504
AU618   AU        0.192041    0.226611    0.266811     0.007504
AU619   AU        0.193332    0.264235    0.228385     0.007504
PT620   PT        0.229413    0.227150    0.229063     0.004505
AU621   AU        0.229327    0.263661    0.265577     0.007504
AU622   AU        0.268336    0.226179    0.266329     0.007504
AU623   AU        0.268322    0.265537    0.227452     0.007504
PT624   PT        0.307727    0.225113    0.227733     0.004505
PT625   PT        0.307221    0.266373    0.264684     0.004505
PT626   PT        0.346331    0.225632    0.264941     0.004505
PT627   PT        0.346392    0.266401    0.226816     0.004505
AU628   AU        0.383356    0.226911    0.227023     0.007504
PT629   PT        0.385371    0.264840    0.267570     0.004505
PT630   PT        0.424336    0.225428    0.265335     0.004505
AU631   AU        0.421331    0.263599    0.228898     0.007504
AU632   AU        0.462700    0.225078    0.228435     0.007504
PT633   PT        0.461078    0.264871    0.266900     0.004505
AU634   AU        0.499711    0.226321    0.264814     0.007504
AU635   AU        0.500905    0.265840    0.227295     0.007504
AU636   AU        0.537405    0.226444    0.225706     0.007504
PT637   PT        0.539909    0.264773    0.264267     0.004505
PT638   PT        0.579243    0.224910    0.267866     0.004505
PT639   PT        0.576709    0.263315    0.228640     0.004505
PT640   PT        0.617273    0.226091    0.228599     0.004505
AU641   AU        0.615686    0.264234    0.266891     0.007504
PT642   PT        0.655733    0.224995    0.265585     0.004505
PT643   PT        0.654197    0.264134    0.229812     0.004505
AU644   AU        0.693420    0.225926    0.229001     0.007504
PT645   PT        0.692631    0.264219    0.265765     0.004505
AU646   AU        0.731841    0.227874    0.267296     0.007504
PT647   PT        0.732143    0.266062    0.229864     0.004505
PT648   PT        0.768664    0.227729    0.229885     0.004505
AU649   AU        0.769355    0.266505    0.267598     0.007504
AU650   AU        0.804327    0.228068    0.269048     0.007504
AU651   AU        0.806163    0.265423    0.230280     0.007504
PT652   PT        0.842872    0.266251    0.268508     0.004505
PT653   PT        0.078182    0.345082    0.268434     0.004505
PT654   PT        0.116708    0.305609    0.269067     0.004505
PT655   PT        0.116953    0.343477    0.229581     0.004505
AU656   AU        0.153263    0.302997    0.229150     0.007504
PT657   PT        0.153236    0.342351    0.266985     0.004505
PT658   PT        0.190872    0.301223    0.266995     0.004505
AU659   AU        0.188990    0.341386    0.228197     0.007504
PT660   PT        0.229929    0.303611    0.229585     0.004505
PT661   PT        0.227163    0.342035    0.268520     0.004505
AU662   AU        0.266495    0.304113    0.267880     0.007504
AU663   AU        0.269217    0.339263    0.228624     0.007504
PT664   PT        0.307311    0.302010    0.227656     0.004505
PT665   PT        0.306272    0.339323    0.267152     0.004505
AU666   AU        0.344414    0.304186    0.266020     0.007504
PT667   PT        0.346496    0.340101    0.226615     0.004505
AU668   AU        0.384111    0.303380    0.229597     0.007504
AU669   AU        0.383159    0.342640    0.266891     0.007504
AU670   AU        0.423136    0.304804    0.267143     0.007504
PT671   PT        0.424009    0.342679    0.230199     0.004505
AU672   AU        0.460431    0.301856    0.228380     0.007504
AU673   AU        0.462028    0.343085    0.267455     0.007504
AU674   AU        0.500152    0.301628    0.268448     0.007504
PT675   PT        0.501301    0.339155    0.229020     0.004505
AU676   AU        0.539446    0.303497    0.228285     0.007504
PT677   PT        0.539543    0.338621    0.264396     0.004505
PT678   PT        0.579989    0.303935    0.266521     0.004505
AU679   AU        0.577935    0.340118    0.228495     0.007504
PT680   PT        0.616057    0.302247    0.225850     0.004505
AU681   AU        0.616493    0.339383    0.267346     0.007504
AU682   AU        0.656007    0.303903    0.267067     0.007504
AU683   AU        0.655641    0.340050    0.229215     0.007504
PT684   PT        0.694019    0.303224    0.229253     0.004505
AU685   AU        0.694389    0.340727    0.267415     0.007504
AU686   AU        0.732426    0.301810    0.268665     0.007504
AU687   AU        0.732556    0.342054    0.228330     0.007504
AU688   AU        0.768780    0.302911    0.229381     0.007504
PT689   PT        0.767562    0.339802    0.267761     0.004505
PT690   PT        0.806204    0.303548    0.267992     0.004505
PT691   PT        0.807437    0.342952    0.228632     0.004505
AU692   AU        0.844450    0.344069    0.268497     0.007504
PT693   PT        0.040911    0.382387    0.268864     0.004505
PT694   PT        0.077907    0.383087    0.230715     0.004505
PT695   PT        0.077992    0.419194    0.268581     0.004505
AU696   AU        0.116694    0.381930    0.269251     0.007504
AU697   AU        0.115895    0.421159    0.230479     0.007504
PT698   PT        0.154296    0.380918    0.228689     0.004505
AU699   AU        0.154023    0.419821    0.267870     0.007504
PT700   PT        0.191115    0.381844    0.265128     0.004505
AU701   AU        0.191602    0.421968    0.228603     0.007504
PT702   PT        0.227298    0.383524    0.226785     0.004505
PT703   PT        0.229241    0.418713    0.267528     0.004505
AU704   AU        0.266620    0.378121    0.268356     0.007504
AU705   AU        0.267677    0.418426    0.227690     0.007504
PT706   PT        0.307724    0.378462    0.228906     0.004505
AU707   AU        0.306992    0.417917    0.265110     0.007504
AU708   AU        0.345487    0.379266    0.265613     0.007504
AU709   AU        0.343258    0.420970    0.228791     0.007504
PT710   PT        0.382752    0.382465    0.228326     0.004505
AU711   AU        0.381986    0.420374    0.269365     0.007504
AU712   AU        0.422577    0.380614    0.269124     0.007504
AU713   AU        0.420927    0.420104    0.229894     0.007504
AU714   AU        0.463730    0.378760    0.226923     0.007504
AU715   AU        0.461180    0.417014    0.269628     0.007504
AU716   AU        0.497885    0.381654    0.267770     0.007504
PT717   PT        0.499569    0.417791    0.229482     0.004505
AU718   AU        0.540527    0.379221    0.228779     0.007504
PT719   PT        0.540618    0.417727    0.266143     0.004505
AU720   AU        0.577278    0.377028    0.268719     0.007504
AU721   AU        0.578734    0.417822    0.228407     0.007504
AU722   AU        0.614844    0.380392    0.228375     0.007504
AU723   AU        0.616140    0.416394    0.266925     0.007504
PT724   PT        0.654402    0.379905    0.264635     0.004505
PT725   PT        0.654492    0.419936    0.227505     0.004505
AU726   AU        0.692604    0.379409    0.226945     0.007504
PT727   PT        0.691135    0.417796    0.266661     0.004505
PT728   PT        0.730627    0.379961    0.264965     0.004505
AU729   AU        0.730331    0.416854    0.227054     0.007504
AU730   AU        0.769107    0.380950    0.227993     0.007504
AU731   AU        0.770294    0.418553    0.266361     0.007504
AU732   AU        0.806137    0.379262    0.267794     0.007504
AU733   AU        0.808067    0.418360    0.230031     0.007504
PT734   PT        0.846375    0.381184    0.230694     0.004505
PT735   PT        0.843276    0.419824    0.268925     0.004505
PT736   PT        0.883851    0.383320    0.268217     0.004505
PT737   PT        0.041287    0.458126    0.268052     0.004505
PT738   PT        0.079429    0.458994    0.231367     0.004505
PT739   PT        0.078303    0.496276    0.268840     0.004505
PT740   PT        0.115904    0.457829    0.268490     0.004505
PT741   PT        0.115279    0.497939    0.229631     0.004505
PT742   PT        0.154034    0.458362    0.227870     0.004505
AU743   AU        0.153407    0.497298    0.266696     0.007504
AU744   AU        0.190626    0.459172    0.266826     0.007504
PT745   PT        0.191854    0.495814    0.229932     0.004505
AU746   AU        0.230522    0.458971    0.229691     0.007504
AU747   AU        0.229648    0.496657    0.269988     0.007504
AU748   AU        0.269188    0.458306    0.267433     0.007504
PT749   PT        0.268446    0.495465    0.226520     0.004505
AU750   AU        0.305977    0.459312    0.229084     0.007504
AU751   AU        0.305737    0.498828    0.267745     0.007504
AU752   AU        0.342717    0.458496    0.267663     0.007504
PT753   PT        0.343471    0.498317    0.230316     0.004505
AU754   AU        0.383037    0.460188    0.228266     0.007504
AU755   AU        0.382406    0.497495    0.268323     0.007504
PT756   PT        0.422373    0.459900    0.268806     0.004505
PT757   PT        0.421317    0.497726    0.230991     0.004505
PT758   PT        0.462693    0.457003    0.227344     0.004505
PT759   PT        0.462304    0.498648    0.267713     0.004505
AU760   AU        0.500531    0.457022    0.266868     0.007504
AU761   AU        0.500562    0.495098    0.229454     0.007504
AU762   AU        0.539026    0.458321    0.228990     0.007504
AU763   AU        0.537613    0.496077    0.267898     0.007504
PT764   PT        0.580711    0.455836    0.267132     0.004505
AU765   AU        0.576337    0.495477    0.229212     0.007504
AU766   AU        0.616875    0.456627    0.229287     0.007504
AU767   AU        0.616755    0.497459    0.268043     0.007504
AU768   AU        0.654070    0.456748    0.267522     0.007504
AU769   AU        0.655421    0.495250    0.230206     0.007504
AU770   AU        0.693169    0.456164    0.227181     0.007504
AU771   AU        0.693595    0.494830    0.267972     0.007504
AU772   AU        0.730399    0.456669    0.265860     0.007504
AU773   AU        0.732457    0.494090    0.229584     0.007504
PT774   PT        0.769123    0.456262    0.228630     0.004505
AU775   AU        0.770752    0.495171    0.267789     0.007504
AU776   AU        0.808676    0.457450    0.266879     0.007504
AU777   AU        0.806748    0.495508    0.229066     0.007504
AU778   AU        0.843509    0.456421    0.229684     0.007504
PT779   PT        0.844557    0.496001    0.267111     0.004505
PT780   PT        0.880847    0.457455    0.268569     0.004505
PT781   PT        0.041662    0.536156    0.266864     0.004505
PT782   PT        0.078667    0.535024    0.230231     0.004505
PT783   PT        0.077244    0.572891    0.269448     0.004505
PT784   PT        0.115668    0.533579    0.268890     0.004505
AU785   AU        0.116228    0.572931    0.231114     0.007504
AU786   AU        0.152091    0.535958    0.228808     0.007504
PT787   PT        0.152273    0.571582    0.268476     0.004505
AU788   AU        0.191728    0.534827    0.267477     0.007504
PT789   PT        0.191376    0.573149    0.228961     0.004505
PT790   PT        0.230864    0.533352    0.229925     0.004505
AU791   AU        0.230807    0.573462    0.267136     0.007504
AU792   AU        0.267190    0.536131    0.268933     0.007504
AU793   AU        0.268288    0.574633    0.227916     0.007504
AU794   AU        0.304292    0.536739    0.229490     0.007504
AU795   AU        0.305378    0.574413    0.269647     0.007504
AU796   AU        0.344345    0.533899    0.269873     0.007504
PT797   PT        0.343395    0.573421    0.229731     0.004505
AU798   AU        0.383170    0.533980    0.230418     0.007504
AU799   AU        0.381813    0.572189    0.268874     0.007504
PT800   PT        0.422067    0.534648    0.269374     0.004505
AU801   AU        0.422124    0.572885    0.229995     0.007504
AU802   AU        0.464735    0.534967    0.228897     0.007504
PT803   PT        0.458908    0.574176    0.266325     0.004505
PT804   PT        0.500897    0.536473    0.268287     0.004505
AU805   AU        0.500731    0.575147    0.228622     0.007504
AU806   AU        0.538520    0.534144    0.229224     0.007504
PT807   PT        0.540087    0.572105    0.268051     0.004505
PT808   PT        0.579986    0.533654    0.268878     0.004505
AU809   AU        0.578970    0.573714    0.231307     0.007504
AU810   AU        0.615333    0.535144    0.227649     0.007504
PT811   PT        0.618087    0.574737    0.269716     0.004505
AU812   AU        0.656295    0.533692    0.268941     0.007504
PT813   PT        0.652010    0.574639    0.227376     0.004505
AU814   AU        0.690670    0.534635    0.229548     0.007504
AU815   AU        0.695972    0.572516    0.268289     0.007504
PT816   PT        0.734042    0.531330    0.267503     0.004505
PT817   PT        0.733286    0.570218    0.231022     0.004505
AU818   AU        0.770250    0.533423    0.230355     0.007504
AU819   AU        0.770774    0.570666    0.267798     0.007504
AU820   AU        0.807450    0.534499    0.270086     0.007504
AU821   AU        0.806650    0.572763    0.229543     0.007504
PT822   PT        0.842929    0.535273    0.230291     0.004505
AU823   AU        0.844605    0.572060    0.268000     0.007504
PT824   PT        0.881222    0.532843    0.268084     0.004505
AU825   AU        0.078449    0.650385    0.270808     0.007504
PT826   PT        0.115108    0.611114    0.269084     0.004505
PT827   PT        0.117487    0.649435    0.230263     0.004505
PT828   PT        0.154025    0.613121    0.230808     0.004505
PT829   PT        0.153193    0.649419    0.268314     0.004505
PT830   PT        0.193461    0.610293    0.265821     0.004505
PT831   PT        0.192459    0.650607    0.228712     0.004505
PT832   PT        0.229454    0.611533    0.229948     0.004505
AU833   AU        0.228752    0.650066    0.266637     0.007504
PT834   PT        0.267600    0.610728    0.266441     0.004505
AU835   AU        0.265776    0.649896    0.230232     0.007504
AU836   AU        0.306319    0.611940    0.228929     0.007504
AU837   AU        0.307916    0.650057    0.267732     0.007504
AU838   AU        0.344108    0.612802    0.267411     0.007504
PT839   PT        0.344596    0.650723    0.229326     0.004505
AU840   AU        0.383994    0.611686    0.228375     0.007504
PT841   PT        0.383768    0.649600    0.270928     0.004505
PT842   PT        0.420731    0.612486    0.268701     0.004505
AU843   AU        0.421626    0.651805    0.230940     0.007504
AU844   AU        0.458898    0.614570    0.230554     0.007504
AU845   AU        0.461320    0.649606    0.268741     0.007504
AU846   AU        0.498123    0.612066    0.268516     0.007504
PT847   PT        0.499049    0.651895    0.228966     0.004505
AU848   AU        0.540209    0.612183    0.231677     0.007504
PT849   PT        0.540144    0.651135    0.270479     0.004505
PT850   PT        0.575259    0.613774    0.268356     0.004505
AU851   AU        0.577463    0.652578    0.229436     0.007504
AU852   AU        0.613219    0.611641    0.230071     0.007504
AU853   AU        0.614086    0.650953    0.267848     0.007504
AU854   AU        0.654957    0.612726    0.267033     0.007504
AU855   AU        0.654784    0.651354    0.230656     0.007504
AU856   AU        0.694029    0.610423    0.230773     0.007504
PT857   PT        0.693466    0.653241    0.267695     0.004505
AU858   AU        0.732929    0.613197    0.266831     0.007504
PT859   PT        0.731672    0.650172    0.229569     0.004505
AU860   AU        0.768381    0.610478    0.229295     0.007504
PT861   PT        0.767607    0.648949    0.270057     0.004505
AU862   AU        0.806177    0.609699    0.270033     0.007504
AU863   AU        0.803896    0.650074    0.231744     0.007504
AU864   AU        0.842879    0.648575    0.267482     0.007504
PT865   PT        0.117131    0.687857    0.270213     0.004505
PT866   PT        0.155206    0.685734    0.229925     0.004505
AU867   AU        0.154433    0.724899    0.268807     0.007504
AU868   AU        0.191657    0.687389    0.268333     0.007504
AU869   AU        0.191619    0.725491    0.231699     0.007504
PT870   PT        0.229102    0.689938    0.229508     0.004505
AU871   AU        0.229493    0.728072    0.268664     0.007504
PT872   PT        0.267110    0.688319    0.267417     0.004505
AU873   AU        0.268141    0.727337    0.229298     0.007504
AU874   AU        0.306570    0.689327    0.231180     0.007504
PT875   PT        0.306022    0.728464    0.268397     0.004505
AU876   AU        0.344291    0.689516    0.269235     0.007504
AU877   AU        0.345046    0.727912    0.228365     0.007504
PT878   PT        0.382072    0.688231    0.230451     0.004505
PT879   PT        0.383051    0.729245    0.266021     0.004505
AU880   AU        0.420248    0.690547    0.268520     0.007504
AU881   AU        0.422469    0.726565    0.229334     0.007504
AU882   AU        0.461407    0.688031    0.230054     0.007504
AU883   AU        0.462885    0.727208    0.265742     0.007504
AU884   AU        0.498952    0.689637    0.268576     0.007504
AU885   AU        0.500465    0.726724    0.228681     0.007504
AU886   AU        0.537035    0.688663    0.229709     0.007504
AU887   AU        0.540755    0.728427    0.265277     0.007504
AU888   AU        0.579329    0.689349    0.267533     0.007504
AU889   AU        0.577948    0.725788    0.226488     0.007504
AU890   AU        0.617259    0.687660    0.227800     0.007504
AU891   AU        0.615730    0.728604    0.266508     0.007504
AU892   AU        0.653675    0.690147    0.269197     0.007504
AU893   AU        0.653040    0.725639    0.229859     0.007504
AU894   AU        0.691091    0.690188    0.231351     0.007504
PT895   PT        0.690993    0.728628    0.267213     0.004505
PT896   PT        0.730148    0.690356    0.267118     0.004505
AU897   AU        0.728477    0.727781    0.230866     0.007504
AU898   AU        0.767776    0.687788    0.230824     0.007504
PT899   PT        0.768585    0.726612    0.266619     0.004505
PT900   PT        0.803926    0.686895    0.268226     0.004505
PT901   PT        0.192290    0.763664    0.269025     0.004505
AU902   AU        0.230452    0.764551    0.230617     0.007504
PT903   PT        0.231172    0.801359    0.270077     0.004505
AU904   AU        0.267538    0.764763    0.267937     0.007504
PT905   PT        0.268202    0.801291    0.230500     0.004505
PT906   PT        0.306066    0.764878    0.230165     0.004505
PT907   PT        0.305994    0.802652    0.269038     0.004505
PT908   PT        0.343871    0.765879    0.266403     0.004505
PT909   PT        0.344856    0.803168    0.229525     0.004505
PT910   PT        0.382612    0.767516    0.228517     0.004505
AU911   AU        0.383034    0.804792    0.268110     0.007504
AU912   AU        0.420868    0.766624    0.267005     0.007504
AU913   AU        0.424011    0.803451    0.228974     0.007504
PT914   PT        0.460600    0.766126    0.228048     0.004505
AU915   AU        0.460744    0.804737    0.269803     0.007504
AU916   AU        0.500107    0.767215    0.268329     0.007504
AU917   AU        0.497310    0.803064    0.230853     0.007504
AU918   AU        0.536817    0.765538    0.229015     0.007504
PT919   PT        0.538471    0.803871    0.266293     0.004505
AU920   AU        0.577763    0.764435    0.267766     0.007504
PT921   PT        0.576411    0.801546    0.230381     0.004505
PT922   PT        0.616778    0.764916    0.230407     0.004505
AU923   AU        0.613448    0.803085    0.268070     0.007504
PT924   PT        0.653124    0.764781    0.267544     0.004505
PT925   PT        0.652950    0.802707    0.228285     0.004505
PT926   PT        0.689774    0.765475    0.229497     0.004505
AU927   AU        0.690258    0.802384    0.267417     0.007504
PT928   PT        0.730736    0.763491    0.267700     0.004505
PT929   PT        0.268149    0.839510    0.268112     0.004505
AU930   AU        0.346888    0.841502    0.268908     0.007504
PT931   PT        0.385323    0.841196    0.230986     0.004505
PT932   PT        0.383374    0.878427    0.269130     0.004505
PT933   PT        0.421079    0.841381    0.267366     0.004505
PT934   PT        0.461640    0.840776    0.228721     0.004505
AU935   AU        0.459983    0.876396    0.265617     0.007504
PT936   PT        0.500296    0.841468    0.268419     0.004505
PT937   PT        0.537562    0.839453    0.229573     0.004505
PT938   PT        0.537771    0.877456    0.269346     0.004505
AU939   AU        0.574281    0.841791    0.268033     0.007504
PT940   PT        0.651981    0.839926    0.270201     0.004505
AU941   AU        0.308476    0.040004    0.346029     0.007504
PT942   PT        0.348349    0.038153    0.308949     0.004505
AU943   AU        0.384042    0.041358    0.346652     0.007504
AU944   AU        0.386543    0.005381    0.308261     0.007504
AU945   AU        0.463522    0.039986    0.347201     0.007504
AU946   AU        0.501033    0.040061    0.307829     0.007504
AU947   AU        0.536157    0.040044    0.344775     0.007504
PT948   PT        0.575071    0.038007    0.308571     0.004505
PT949   PT        0.615202    0.038030    0.344882     0.004505
PT950   PT        0.193265    0.114004    0.304700     0.004505
AU951   AU        0.230419    0.112889    0.345319     0.007504
AU952   AU        0.268012    0.076708    0.344994     0.007504
PT953   PT        0.268880    0.114061    0.304311     0.004505
AU954   AU        0.306000    0.077011    0.306231     0.007504
AU955   AU        0.306451    0.112318    0.343676     0.007504
PT956   PT        0.345708    0.075803    0.345028     0.004505
AU957   AU        0.344050    0.111344    0.305162     0.007504
AU958   AU        0.384552    0.075869    0.306482     0.007504
AU959   AU        0.382066    0.111336    0.343242     0.007504
PT960   PT        0.423831    0.076255    0.345561     0.004505
PT961   PT        0.422974    0.112967    0.304386     0.004505
PT962   PT        0.462466    0.076052    0.306478     0.004505
AU963   AU        0.463077    0.114746    0.345525     0.007504
PT964   PT        0.501225    0.076745    0.344249     0.004505
AU965   AU        0.499520    0.112551    0.305674     0.007504
PT966   PT        0.538412    0.075465    0.306597     0.004505
PT967   PT        0.541527    0.111350    0.344383     0.004505
AU968   AU        0.577906    0.074898    0.344368     0.007504
PT969   PT        0.577160    0.110573    0.306465     0.004505
PT970   PT        0.617460    0.075666    0.308063     0.004505
AU971   AU        0.616967    0.111737    0.346311     0.007504
PT972   PT        0.654876    0.074537    0.346244     0.004505
PT973   PT        0.653002    0.112326    0.306057     0.004505
PT974   PT        0.692124    0.110486    0.344198     0.004505
PT975   PT        0.730704    0.112137    0.304645     0.004505
PT976   PT        0.115920    0.188849    0.303191     0.004505
PT977   PT        0.156015    0.154218    0.306468     0.004505
AU978   AU        0.154458    0.188679    0.345533     0.007504
PT979   PT        0.191684    0.151376    0.345122     0.004505
AU980   AU        0.192595    0.190563    0.304326     0.007504
AU981   AU        0.230124    0.150578    0.305257     0.007504
PT982   PT        0.229186    0.188316    0.344697     0.004505
AU983   AU        0.268413    0.150407    0.343036     0.007504
AU984   AU        0.267217    0.187803    0.303828     0.007504
PT985   PT        0.306737    0.149525    0.304598     0.004505
AU986   AU        0.304409    0.186017    0.343472     0.007504
AU987   AU        0.344019    0.149732    0.343782     0.007504
PT988   PT        0.345040    0.187244    0.304069     0.004505
PT989   PT        0.381796    0.148183    0.305575     0.004505
PT990   PT        0.380089    0.186780    0.347531     0.004505
PT991   PT        0.421083    0.150249    0.343406     0.004505
PT992   PT        0.424577    0.186553    0.302130     0.004505
AU993   AU        0.462199    0.149912    0.305341     0.007504
PT994   PT        0.463279    0.186760    0.347623     0.004505
AU995   AU        0.503041    0.148033    0.345409     0.007504
PT996   PT        0.503666    0.186706    0.306289     0.004505
PT997   PT        0.538951    0.147256    0.304418     0.004505
PT998   PT        0.539248    0.190072    0.347845     0.004505
PT999   PT        0.578979    0.149442    0.343169     0.004505
PT1000   PT        0.579464    0.187592    0.305174     0.004505
AU1001   AU        0.616115    0.149424    0.306106     0.007504
AU1002   AU        0.616021    0.188933    0.342659     0.007504
AU1003   AU        0.654718    0.150185    0.344226     0.007504
AU1004   AU        0.655534    0.188023    0.306072     0.007504
AU1005   AU        0.693252    0.149767    0.305449     0.007504
PT1006   PT        0.696775    0.189624    0.344755     0.004505
PT1007   PT        0.731732    0.149608    0.342316     0.004505
AU1008   AU        0.731213    0.188105    0.304549     0.007504
PT1009   PT        0.768064    0.151413    0.305599     0.004505
PT1010   PT        0.768469    0.187453    0.345386     0.004505
PT1011   PT        0.806303    0.189344    0.308154     0.004505
PT1012   PT        0.077774    0.265881    0.343602     0.004505
PT1013   PT        0.115838    0.227121    0.343646     0.004505
PT1014   PT        0.116343    0.265264    0.306739     0.004505
AU1015   AU        0.154048    0.226782    0.305522     0.007504
AU1016   AU        0.154056    0.264603    0.342993     0.007504
AU1017   AU        0.192562    0.225739    0.345351     0.007504
PT1018   PT        0.189729    0.264998    0.305104     0.004505
PT1019   PT        0.229704    0.227985    0.305567     0.004505
AU1020   AU        0.229302    0.264808    0.343026     0.007504
AU1021   AU        0.266807    0.226839    0.345738     0.007504
PT1022   PT        0.269123    0.264573    0.305492     0.004505
PT1023   PT        0.304719    0.226111    0.306276     0.004505
PT1024   PT        0.307476    0.266871    0.345287     0.004505
PT1025   PT        0.343334    0.225952    0.343601     0.004505
AU1026   AU        0.344582    0.265925    0.304009     0.007504
PT1027   PT        0.384557    0.226588    0.303643     0.004505
AU1028   AU        0.383718    0.266272    0.342967     0.007504
PT1029   PT        0.423323    0.230475    0.345698     0.004505
AU1030   AU        0.421781    0.265820    0.303489     0.007504
AU1031   AU        0.464992    0.223201    0.306053     0.007504
AU1032   AU        0.465152    0.265862    0.346173     0.007504
PT1033   PT        0.502190    0.224442    0.344487     0.004505
AU1034   AU        0.500648    0.263474    0.307165     0.007504
AU1035   AU        0.538370    0.227134    0.304725     0.007504
PT1036   PT        0.538823    0.265090    0.344100     0.004505
AU1037   AU        0.576736    0.229367    0.345649     0.007504
AU1038   AU        0.579841    0.264813    0.306075     0.007504
AU1039   AU        0.618117    0.224665    0.304795     0.007504
AU1040   AU        0.617861    0.265957    0.344887     0.007504
PT1041   PT        0.654276    0.227329    0.343211     0.004505
AU1042   AU        0.653117    0.263047    0.304466     0.007504
AU1043   AU        0.694865    0.226367    0.304839     0.007504
PT1044   PT        0.693069    0.264763    0.344292     0.004505
PT1045   PT        0.731492    0.225692    0.345943     0.004505
AU1046   AU        0.732684    0.265455    0.306956     0.007504
AU1047   AU        0.769267    0.226724    0.306732     0.007504
PT1048   PT        0.770269    0.262684    0.346997     0.004505
PT1049   PT        0.807993    0.225453    0.345714     0.004505
AU1050   AU        0.807146    0.266248    0.308437     0.007504
PT1051   PT        0.845184    0.267298    0.345377     0.004505
PT1052   PT        0.039997    0.304850    0.343705     0.004505
PT1053   PT        0.041281    0.342849    0.307001     0.004505
PT1054   PT        0.079370    0.303290    0.308351     0.004505
PT1055   PT        0.078622    0.341284    0.343477     0.004505
PT1056   PT        0.115385    0.305298    0.345068     0.004505
PT1057   PT        0.113786    0.342480    0.304848     0.004505
AU1058   AU        0.154399    0.302441    0.304914     0.007504
AU1059   AU        0.151085    0.341484    0.343018     0.007504
PT1060   PT        0.190663    0.303959    0.343677     0.004505
AU1061   AU        0.189270    0.342578    0.304894     0.007504
PT1062   PT        0.228442    0.302441    0.306696     0.004505
AU1063   AU        0.228674    0.340461    0.346713     0.007504
AU1064   AU        0.267663    0.304581    0.346112     0.007504
AU1065   AU        0.267009    0.343752    0.309082     0.007504
AU1066   AU        0.306472    0.306180    0.308156     0.007504
AU1067   AU        0.306161    0.342394    0.346876     0.007504
AU1068   AU        0.346323    0.305684    0.346992     0.007504
AU1069   AU        0.345954    0.341902    0.306726     0.007504
AU1070   AU        0.384053    0.304472    0.303736     0.007504
AU1071   AU        0.385645    0.340048    0.344882     0.007504
AU1072   AU        0.425653    0.303194    0.343918     0.007504
AU1073   AU        0.422671    0.341891    0.305617     0.007504
AU1074   AU        0.462264    0.301931    0.305712     0.007504
PT1075   PT        0.463449    0.341710    0.343551     0.004505
PT1076   PT        0.501877    0.303073    0.343165     0.004505
AU1077   AU        0.502269    0.342596    0.305377     0.007504
AU1078   AU        0.541290    0.303084    0.304349     0.007504
PT1079   PT        0.541968    0.340273    0.344680     0.004505
AU1080   AU        0.578307    0.302776    0.347071     0.007504
AU1081   AU        0.579669    0.341188    0.305646     0.007504
AU1082   AU        0.616733    0.303303    0.304728     0.007504
AU1083   AU        0.615398    0.339666    0.344671     0.007504
AU1084   AU        0.654185    0.303451    0.344202     0.007504
AU1085   AU        0.655759    0.339937    0.306531     0.007504
AU1086   AU        0.692480    0.300891    0.306164     0.007504
AU1087   AU        0.693896    0.340532    0.344255     0.007504
PT1088   PT        0.734213    0.301597    0.346958     0.004505
AU1089   AU        0.733286    0.339357    0.308315     0.007504
AU1090   AU        0.770928    0.301749    0.309453     0.007504
PT1091   PT        0.771378    0.341864    0.346237     0.004505
PT1092   PT        0.807946    0.303113    0.346165     0.004505
PT1093   PT        0.808723    0.343464    0.307658     0.004505
AU1094   AU        0.845750    0.304345    0.308545     0.007504
PT1095   PT        0.845579    0.342640    0.345099     0.004505
AU1096   AU        0.880594    0.303688    0.346047     0.007504
PT1097   PT        0.883285    0.341834    0.305858     0.004505
AU1098   AU        0.040394    0.379332    0.344557     0.007504
AU1099   AU        0.042704    0.417240    0.307230     0.007504
PT1100   PT        0.078020    0.379962    0.306480     0.004505
PT1101   PT        0.076405    0.419248    0.345450     0.004505
AU1102   AU        0.114836    0.379042    0.343133     0.007504
PT1103   PT        0.114959    0.420702    0.307525     0.004505
AU1104   AU        0.152238    0.381225    0.306882     0.007504
PT1105   PT        0.150964    0.420783    0.345224     0.004505
AU1106   AU        0.191803    0.381371    0.345171     0.007504
AU1107   AU        0.191450    0.419374    0.307944     0.007504
AU1108   AU        0.229056    0.381689    0.307019     0.007504
AU1109   AU        0.229648    0.421043    0.345324     0.007504
AU1110   AU        0.268268    0.382920    0.345285     0.007504
AU1111   AU        0.269540    0.419142    0.308281     0.007504
AU1112   AU        0.308780    0.382951    0.307373     0.007504
AU1113   AU        0.306236    0.421595    0.345613     0.007504
AU1114   AU        0.344745    0.382600    0.345353     0.007504
AU1115   AU        0.346031    0.420253    0.307343     0.007504
AU1116   AU        0.384163    0.380990    0.306380     0.007504
PT1117   PT        0.384352    0.420205    0.344974     0.004505
PT1118   PT        0.423302    0.378758    0.346307     0.004505
AU1119   AU        0.421038    0.419762    0.305264     0.007504
AU1120   AU        0.459987    0.378795    0.306667     0.007504
AU1121   AU        0.461833    0.420226    0.344347     0.007504
AU1122   AU        0.500007    0.380726    0.347661     0.007504
AU1123   AU        0.499790    0.418899    0.307855     0.007504
PT1124   PT        0.539526    0.380553    0.309761     0.004505
AU1125   AU        0.538779    0.418953    0.344774     0.007504
AU1126   AU        0.579931    0.380221    0.346360     0.007504
PT1127   PT        0.576841    0.420589    0.306963     0.004505
AU1128   AU        0.618934    0.380932    0.307154     0.007504
PT1129   PT        0.617987    0.418022    0.344809     0.004505
AU1130   AU        0.653683    0.377497    0.346735     0.007504
AU1131   AU        0.657101    0.417630    0.305619     0.007504
AU1132   AU        0.695035    0.380785    0.304532     0.007504
AU1133   AU        0.693142    0.420730    0.347353     0.007504
PT1134   PT        0.733540    0.380248    0.347805     0.004505
PT1135   PT        0.733659    0.420096    0.304879     0.004505
AU1136   AU        0.770463    0.379651    0.305513     0.007504
PT1137   PT        0.771317    0.419968    0.344552     0.004505
PT1138   PT        0.808539    0.381309    0.346350     0.004505
PT1139   PT        0.806074    0.418840    0.303822     0.004505
PT1140   PT        0.845445    0.380678    0.306097     0.004505
PT1141   PT        0.845255    0.417324    0.345960     0.004505
PT1142   PT        0.883800    0.376857    0.344526     0.004505
PT1143   PT        0.881498    0.418072    0.306599     0.004505
AU1144   AU        0.040239    0.458039    0.346500     0.007504
PT1145   PT        0.041301    0.496933    0.304210     0.004505
PT1146   PT        0.077626    0.458568    0.305624     0.004505
PT1147   PT        0.077347    0.498285    0.343070     0.004505
PT1148   PT        0.113258    0.459143    0.343202     0.004505
AU1149   AU        0.113596    0.496785    0.304422     0.007504
AU1150   AU        0.153223    0.459332    0.306544     0.007504
AU1151   AU        0.152075    0.496419    0.343546     0.007504
AU1152   AU        0.188592    0.458147    0.346237     0.007504
PT1153   PT        0.191527    0.496114    0.308266     0.004505
AU1154   AU        0.231014    0.458135    0.305818     0.007504
AU1155   AU        0.229892    0.497915    0.345348     0.007504
PT1156   PT        0.265846    0.457431    0.346584     0.004505
AU1157   AU        0.267805    0.496727    0.307770     0.007504
AU1158   AU        0.305926    0.458510    0.307459     0.007504
PT1159   PT        0.305075    0.496742    0.345175     0.004505
AU1160   AU        0.345072    0.457458    0.344756     0.007504
AU1161   AU        0.345711    0.497878    0.308224     0.007504
AU1162   AU        0.380768    0.460332    0.308081     0.007504
AU1163   AU        0.383374    0.495452    0.347037     0.007504
AU1164   AU        0.423497    0.459685    0.347467     0.007504
AU1165   AU        0.421239    0.496548    0.306477     0.007504
AU1166   AU        0.461875    0.458356    0.305916     0.007504
AU1167   AU        0.460692    0.495377    0.343271     0.007504
AU1168   AU        0.500408    0.458288    0.345443     0.007504
AU1169   AU        0.501595    0.494442    0.308017     0.007504
AU1170   AU        0.537616    0.457108    0.308085     0.007504
AU1171   AU        0.538543    0.497379    0.345927     0.007504
AU1172   AU        0.578054    0.458139    0.345318     0.007504
AU1173   AU        0.576756    0.493775    0.305530     0.007504
AU1174   AU        0.616439    0.455364    0.307483     0.007504
AU1175   AU        0.614990    0.495008    0.344280     0.007504
AU1176   AU        0.653348    0.457341    0.347247     0.007504
AU1177   AU        0.654509    0.494822    0.304792     0.007504
AU1178   AU        0.694304    0.456974    0.305942     0.007504
PT1179   PT        0.693449    0.495440    0.342706     0.004505
AU1180   AU        0.731428    0.456302    0.347682     0.007504
AU1181   AU        0.732229    0.495382    0.307843     0.007504
AU1182   AU        0.771446    0.457994    0.307071     0.007504
PT1183   PT        0.769886    0.493873    0.345496     0.004505
PT1184   PT        0.809860    0.456363    0.343120     0.004505
PT1185   PT        0.809398    0.495179    0.305633     0.004505
AU1186   AU        0.846259    0.456331    0.306185     0.007504
AU1187   AU        0.845439    0.494761    0.345072     0.007504
AU1188   AU        0.881833    0.457213    0.346583     0.007504
PT1189   PT        0.881294    0.494465    0.306067     0.004505
AU1190   AU        0.040385    0.536353    0.343444     0.007504
PT1191   PT        0.040161    0.572698    0.306595     0.004505
AU1192   AU        0.076925    0.534980    0.304780     0.007504
PT1193   PT        0.077614    0.573972    0.344316     0.004505
AU1194   AU        0.114760    0.535312    0.342826     0.007504
PT1195   PT        0.114729    0.573939    0.307883     0.004505
AU1196   AU        0.155260    0.534533    0.305772     0.007504
AU1197   AU        0.153245    0.574638    0.345010     0.007504
PT1198   PT        0.191506    0.535374    0.344715     0.004505
AU1199   AU        0.191115    0.575023    0.305591     0.007504
AU1200   AU        0.228687    0.536060    0.308107     0.007504
AU1201   AU        0.228645    0.573338    0.344105     0.007504
AU1202   AU        0.266393    0.534659    0.346458     0.007504
AU1203   AU        0.266211    0.573835    0.305304     0.007504
AU1204   AU        0.306637    0.535193    0.307265     0.007504
AU1205   AU        0.305338    0.573293    0.343792     0.007504
AU1206   AU        0.346195    0.536581    0.344843     0.007504
AU1207   AU        0.346736    0.574999    0.307039     0.007504
AU1208   AU        0.384605    0.534818    0.306812     0.007504
AU1209   AU        0.384660    0.570974    0.344871     0.007504
AU1210   AU        0.423411    0.532432    0.343816     0.007504
PT1211   PT        0.419816    0.576428    0.305973     0.004505
PT1212   PT        0.463767    0.532215    0.306340     0.004505
AU1213   AU        0.462594    0.575033    0.346994     0.007504
PT1214   PT        0.501241    0.534437    0.346016     0.004505
AU1215   AU        0.500662    0.575549    0.307538     0.007504
PT1216   PT        0.540547    0.532683    0.306966     0.004505
AU1217   AU        0.536839    0.574324    0.344887     0.007504
AU1218   AU        0.577871    0.534590    0.345371     0.007504
PT1219   PT        0.575699    0.576097    0.306125     0.004505
AU1220   AU        0.616425    0.535289    0.306386     0.007504
AU1221   AU        0.616102    0.572817    0.346467     0.007504
PT1222   PT        0.654829    0.531818    0.343823     0.004505
AU1223   AU        0.655747    0.572759    0.307489     0.007504
AU1224   AU        0.694038    0.534427    0.309407     0.007504
AU1225   AU        0.694192    0.573418    0.345300     0.007504
AU1226   AU        0.734149    0.535039    0.346410     0.007504
AU1227   AU        0.733887    0.573274    0.308713     0.007504
AU1228   AU        0.770390    0.533432    0.307396     0.007504
AU1229   AU        0.770850    0.575567    0.346288     0.007504
AU1230   AU        0.807221    0.534936    0.345349     0.007504
PT1231   PT        0.808171    0.574360    0.307213     0.004505
AU1232   AU        0.846120    0.534644    0.306873     0.007504
PT1233   PT        0.844037    0.573302    0.344522     0.004505
AU1234   AU        0.881419    0.534208    0.346444     0.007504
PT1235   PT        0.882933    0.571854    0.306317     0.004505
PT1236   PT        0.039976    0.610686    0.345785     0.004505
PT1237   PT        0.077586    0.611755    0.308204     0.004505
PT1238   PT        0.077277    0.649708    0.346999     0.004505
PT1239   PT        0.115055    0.611969    0.345120     0.004505
AU1240   AU        0.114474    0.651757    0.307093     0.007504
AU1241   AU        0.153063    0.612894    0.307126     0.007504
PT1242   PT        0.151824    0.649509    0.346390     0.004505
AU1243   AU        0.190258    0.613357    0.345103     0.007504
AU1244   AU        0.190030    0.648479    0.306181     0.007504
PT1245   PT        0.229774    0.611781    0.306910     0.004505
AU1246   AU        0.230316    0.651511    0.344791     0.007504
PT1247   PT        0.268075    0.611145    0.345837     0.004505
AU1248   AU        0.266550    0.650537    0.305774     0.007504
AU1249   AU        0.306191    0.611249    0.306545     0.007504
PT1250   PT        0.306883    0.651561    0.346969     0.004505
AU1251   AU        0.344966    0.613990    0.344670     0.007504
AU1252   AU        0.343928    0.651282    0.306110     0.007504
AU1253   AU        0.382629    0.613335    0.306695     0.007504
AU1254   AU        0.384319    0.650099    0.342601     0.007504
AU1255   AU        0.422506    0.614298    0.344248     0.007504
AU1256   AU        0.425617    0.650801    0.306511     0.007504
AU1257   AU        0.461088    0.611832    0.305237     0.007504
PT1258   PT        0.459815    0.650885    0.343451     0.004505
AU1259   AU        0.501479    0.611493    0.345770     0.007504
AU1260   AU        0.497104    0.650746    0.305949     0.007504
AU1261   AU        0.536043    0.613389    0.307640     0.007504
AU1262   AU        0.538111    0.649984    0.347536     0.007504
AU1263   AU        0.579137    0.609721    0.345024     0.007504
PT1264   PT        0.576272    0.649325    0.309950     0.004505
AU1265   AU        0.614668    0.610516    0.306875     0.007504
AU1266   AU        0.618083    0.648436    0.344992     0.007504
AU1267   AU        0.654586    0.609018    0.346938     0.007504
AU1268   AU        0.653369    0.651742    0.304238     0.007504
AU1269   AU        0.692840    0.613759    0.305607     0.007504
AU1270   AU        0.693047    0.649870    0.344309     0.007504
AU1271   AU        0.733016    0.612745    0.344936     0.007504
AU1272   AU        0.730731    0.652810    0.305676     0.007504
AU1273   AU        0.771245    0.612057    0.308298     0.007504
AU1274   AU        0.769776    0.652485    0.345713     0.007504
AU1275   AU        0.807269    0.613575    0.345535     0.007504
AU1276   AU        0.807386    0.650591    0.306562     0.007504
PT1277   PT        0.846744    0.608529    0.306811     0.004505
PT1278   PT        0.843999    0.650559    0.343699     0.004505
PT1279   PT        0.882434    0.610258    0.346053     0.004505
PT1280   PT        0.115376    0.688058    0.346931     0.004505
PT1281   PT        0.117550    0.726457    0.306093     0.004505
PT1282   PT        0.153809    0.687195    0.305845     0.004505
AU1283   AU        0.154057    0.726079    0.346124     0.007504
PT1284   PT        0.191820    0.687495    0.346285     0.004505
AU1285   AU        0.190853    0.727107    0.307563     0.007504
AU1286   AU        0.228232    0.689004    0.305698     0.007504
PT1287   PT        0.229190    0.727120    0.348093     0.004505
AU1288   AU        0.268373    0.690068    0.345093     0.007504
AU1289   AU        0.266317    0.725968    0.305578     0.007504
AU1290   AU        0.304420    0.689702    0.305286     0.007504
AU1291   AU        0.306790    0.728230    0.344726     0.007504
PT1292   PT        0.345654    0.689024    0.346192     0.004505
AU1293   AU        0.343638    0.729071    0.304652     0.007504
PT1294   PT        0.379991    0.690402    0.306106     0.004505
AU1295   AU        0.383164    0.729438    0.344109     0.007504
PT1296   PT        0.421856    0.691232    0.344403     0.004505
PT1297   PT        0.421778    0.729718    0.306011     0.004505
AU1298   AU        0.460563    0.688280    0.307497     0.007504
PT1299   PT        0.459493    0.727302    0.343392     0.004505
AU1300   AU        0.499072    0.687970    0.343486     0.007504
PT1301   PT        0.498936    0.724611    0.305527     0.004505
AU1302   AU        0.539987    0.688564    0.305984     0.007504
PT1303   PT        0.538546    0.728193    0.343463     0.004505
AU1304   AU        0.577545    0.688239    0.346567     0.007504
AU1305   AU        0.575390    0.726875    0.305474     0.007504
AU1306   AU        0.615541    0.690385    0.307234     0.007504
PT1307   PT        0.614168    0.728563    0.343812     0.004505
AU1308   AU        0.653449    0.690869    0.345417     0.007504
AU1309   AU        0.653207    0.727131    0.306996     0.007504
PT1310   PT        0.691555    0.691630    0.306348     0.004505
AU1311   AU        0.692116    0.726890    0.344550     0.007504
PT1312   PT        0.733386    0.690299    0.345337     0.004505
PT1313   PT        0.730387    0.725899    0.304832     0.004505
PT1314   PT        0.768756    0.688342    0.306380     0.004505
PT1315   PT        0.767765    0.727478    0.345270     0.004505
PT1316   PT        0.805144    0.689182    0.345491     0.004505
AU1317   AU        0.806014    0.725643    0.304639     0.007504
PT1318   PT        0.153611    0.764470    0.305866     0.004505
PT1319   PT        0.190600    0.766002    0.346887     0.004505
PT1320   PT        0.192701    0.799962    0.307870     0.004505
PT1321   PT        0.229780    0.764124    0.306135     0.004505
PT1322   PT        0.229907    0.803748    0.346354     0.004505
AU1323   AU        0.268138    0.766486    0.346081     0.007504
PT1324   PT        0.269987    0.802786    0.307031     0.004505
PT1325   PT        0.306694    0.765556    0.305941     0.004505
AU1326   AU        0.307510    0.803109    0.345658     0.007504
PT1327   PT        0.347350    0.765848    0.343933     0.004505
AU1328   AU        0.345723    0.803234    0.303889     0.007504
PT1329   PT        0.382438    0.765869    0.304278     0.004505
PT1330   PT        0.383019    0.802778    0.345511     0.004505
PT1331   PT        0.422986    0.768101    0.343265     0.004505
AU1332   AU        0.419858    0.804173    0.305882     0.007504
AU1333   AU        0.460965    0.766282    0.305287     0.007504
AU1334   AU        0.462169    0.805317    0.342371     0.007504
PT1335   PT        0.499139    0.767797    0.342613     0.004505
AU1336   AU        0.498612    0.804407    0.304878     0.007504
PT1337   PT        0.538356    0.768116    0.305422     0.004505
AU1338   AU        0.537129    0.804283    0.344787     0.007504
AU1339   AU        0.577424    0.767447    0.343561     0.007504
PT1340   PT        0.576227    0.803895    0.306042     0.004505
AU1341   AU        0.615112    0.764678    0.305445     0.007504
PT1342   PT        0.616649    0.803679    0.344689     0.004505
PT1343   PT        0.653021    0.765529    0.344422     0.004505
PT1344   PT        0.654052    0.803036    0.306877     0.004505
AU1345   AU        0.691775    0.764361    0.305628     0.007504
PT1346   PT        0.691527    0.801134    0.346502     0.004505
PT1347   PT        0.730596    0.766486    0.346723     0.004505
PT1348   PT        0.731180    0.798934    0.307095     0.004505
PT1349   PT        0.768823    0.763207    0.306177     0.004505
PT1350   PT        0.268638    0.839134    0.348361     0.004505
PT1351   PT        0.307816    0.840359    0.305863     0.004505
PT1352   PT        0.304868    0.877567    0.343900     0.004505
AU1353   AU        0.342981    0.842330    0.344099     0.007504
PT1354   PT        0.343561    0.879023    0.304816     0.004505
PT1355   PT        0.383121    0.840989    0.305694     0.004505
PT1356   PT        0.379962    0.877948    0.342900     0.004505
PT1357   PT        0.422786    0.841479    0.345896     0.004505
PT1358   PT        0.423523    0.878240    0.306366     0.004505
PT1359   PT        0.461297    0.841904    0.307401     0.004505
PT1360   PT        0.461159    0.879852    0.347638     0.004505
PT1361   PT        0.502122    0.842053    0.345344     0.004505
PT1362   PT        0.501669    0.877688    0.306709     0.004505
AU1363   AU        0.539596    0.841461    0.306461     0.007504
PT1364   PT        0.538894    0.877796    0.345273     0.004505
PT1365   PT        0.575460    0.841635    0.345475     0.004505
PT1366   PT        0.578067    0.878520    0.304837     0.004505
AU1367   AU        0.613272    0.839123    0.305699     0.007504
PT1368   PT        0.612640    0.878731    0.344112     0.004505
AU1369   AU        0.651857    0.841258    0.344279     0.007504
PT1370   PT        0.272067    0.040636    0.383998     0.004505
PT1371   PT        0.308196    0.041138    0.421717     0.004505
PT1372   PT        0.345931    0.040437    0.383378     0.004505
PT1373   PT        0.386279    0.040814    0.423609     0.004505
AU1374   AU        0.425559    0.007686    0.423021     0.007504
PT1375   PT        0.424371    0.043132    0.384219     0.004505
AU1376   AU        0.462153    0.005875    0.385718     0.007504
PT1377   PT        0.462015    0.042768    0.422284     0.004505
PT1378   PT        0.498829    0.006250    0.424756     0.004505
PT1379   PT        0.501973    0.040693    0.386663     0.004505
AU1380   AU        0.538281    0.041121    0.424175     0.007504
AU1381   AU        0.575588    0.005292    0.425038     0.007504
PT1382   PT        0.616468    0.038841    0.421862     0.004505
PT1383   PT        0.654759    0.038497    0.383559     0.004505
AU1384   AU        0.156037    0.113534    0.423805     0.007504
AU1385   AU        0.195469    0.076925    0.423394     0.007504
PT1386   PT        0.193711    0.112829    0.386764     0.004505
AU1387   AU        0.233580    0.077534    0.385704     0.007504
PT1388   PT        0.231350    0.113527    0.422667     0.004505
PT1389   PT        0.269288    0.075749    0.423375     0.004505
AU1390   AU        0.269518    0.113181    0.383289     0.007504
PT1391   PT        0.307075    0.077463    0.383919     0.004505
PT1392   PT        0.306156    0.112347    0.422987     0.004505
AU1393   AU        0.345445    0.076805    0.422113     0.007504
AU1394   AU        0.346113    0.111909    0.381902     0.007504
PT1395   PT        0.386295    0.076768    0.384585     0.004505
AU1396   AU        0.383565    0.112584    0.423917     0.007504
PT1397   PT        0.422691    0.077267    0.424050     0.004505
PT1398   PT        0.423795    0.113697    0.384035     0.004505
PT1399   PT        0.464156    0.077209    0.383260     0.004505
PT1400   PT        0.462365    0.112588    0.421722     0.004505
AU1401   AU        0.500836    0.077898    0.423113     0.007504
AU1402   AU        0.502895    0.113060    0.384539     0.007504
PT1403   PT        0.539987    0.075743    0.383873     0.004505
AU1404   AU        0.540247    0.111931    0.422247     0.007504
PT1405   PT        0.577776    0.076356    0.423811     0.004505
PT1406   PT        0.579629    0.110960    0.384207     0.004505
PT1407   PT        0.616969    0.075143    0.382920     0.004505
PT1408   PT        0.617253    0.112216    0.422843     0.004505
PT1409   PT        0.654657    0.076080    0.422702     0.004505
PT1410   PT        0.654064    0.112483    0.381919     0.004505
PT1411   PT        0.692383    0.076881    0.383489     0.004505
PT1412   PT        0.694416    0.111322    0.421608     0.004505
PT1413   PT        0.732606    0.074952    0.423556     0.004505
AU1414   AU        0.732221    0.111713    0.386619     0.007504
PT1415   PT        0.770207    0.112657    0.426014     0.004505
PT1416   PT        0.078949    0.189678    0.420171     0.004505
PT1417   PT        0.117275    0.150249    0.424137     0.004505
AU1418   AU        0.116612    0.187720    0.383283     0.007504
PT1419   PT        0.155386    0.149440    0.387089     0.004505
PT1420   PT        0.154219    0.187913    0.424354     0.004505
PT1421   PT        0.193738    0.150586    0.422785     0.004505
AU1422   AU        0.191194    0.188924    0.383869     0.007504
PT1423   PT        0.229017    0.150156    0.383256     0.004505
AU1424   AU        0.229379    0.187447    0.422236     0.007504
AU1425   AU        0.267372    0.149894    0.423208     0.007504
PT1426   PT        0.265707    0.186450    0.381606     0.004505
AU1427   AU        0.304978    0.149447    0.382372     0.007504
PT1428   PT        0.304638    0.187866    0.419651     0.004505
AU1429   AU        0.344796    0.150423    0.424048     0.007504
AU1430   AU        0.343041    0.187633    0.383777     0.007504
PT1431   PT        0.384418    0.149888    0.384797     0.004505
AU1432   AU        0.384104    0.188616    0.421302     0.007504
AU1433   AU        0.421594    0.149964    0.424648     0.007504
PT1434   PT        0.423874    0.186355    0.386687     0.004505
AU1435   AU        0.463222    0.150220    0.385090     0.007504
AU1436   AU        0.462735    0.191411    0.423199     0.007504
PT1437   PT        0.501519    0.148560    0.423171     0.004505
PT1438   PT        0.501283    0.187345    0.385225     0.004505
PT1439   PT        0.541423    0.148353    0.383255     0.004505
AU1440   AU        0.538502    0.189578    0.422013     0.007504
AU1441   AU        0.578955    0.147358    0.421668     0.007504
PT1442   PT        0.577953    0.186470    0.381941     0.004505
PT1443   PT        0.617160    0.149320    0.383828     0.004505
AU1444   AU        0.615948    0.187849    0.422288     0.007504
PT1445   PT        0.654292    0.149074    0.421237     0.004505
PT1446   PT        0.654925    0.187923    0.382190     0.004505
PT1447   PT        0.692345    0.149742    0.384893     0.004505
AU1448   AU        0.693490    0.188669    0.420322     0.007504
AU1449   AU        0.731635    0.149196    0.423764     0.007504
PT1450   PT        0.733230    0.188414    0.387096     0.004505
PT1451   PT        0.769529    0.152082    0.387106     0.004505
AU1452   AU        0.771777    0.188029    0.423937     0.007504
PT1453   PT        0.807625    0.150569    0.425187     0.004505
PT1454   PT        0.808092    0.189347    0.387020     0.004505
AU1455   AU        0.844253    0.190128    0.422447     0.007504
PT1456   PT        0.041823    0.266689    0.381775     0.004505
PT1457   PT        0.080414    0.228721    0.305362     0.004505
AU1458   AU        0.077710    0.265140    0.421834     0.007504
AU1459   AU        0.116424    0.224980    0.421571     0.007504
PT1460   PT        0.114898    0.264397    0.382650     0.004505
PT1461   PT        0.152269    0.226907    0.381499     0.004505
PT1462   PT        0.150181    0.263905    0.423801     0.004505
AU1463   AU        0.189776    0.225672    0.422945     0.007504
PT1464   PT        0.190099    0.264089    0.382485     0.004505
PT1465   PT        0.230637    0.227083    0.382826     0.004505
PT1466   PT        0.226907    0.265123    0.422911     0.004505
PT1467   PT        0.265760    0.227937    0.422278     0.004505
AU1468   AU        0.267730    0.266786    0.383316     0.007504
AU1469   AU        0.305983    0.224699    0.381584     0.007504
AU1470   AU        0.305628    0.264958    0.420315     0.007504
AU1471   AU        0.345372    0.225657    0.422088     0.007504
AU1472   AU        0.345595    0.264128    0.383752     0.007504
PT1473   PT        0.381396    0.226379    0.381617     0.004505
AU1474   AU        0.383276    0.267835    0.422372     0.007504
AU1475   AU        0.421270    0.227963    0.421801     0.007504
AU1476   AU        0.422689    0.266686    0.384068     0.007504
PT1477   PT        0.461194    0.227059    0.383252     0.004505
AU1478   AU        0.462483    0.264986    0.423229     0.007504
AU1479   AU        0.500919    0.227856    0.421141     0.007504
AU1480   AU        0.500591    0.267097    0.383668     0.007504
PT1481   PT        0.537374    0.225674    0.384977     0.004505
AU1482   AU        0.539031    0.265388    0.424642     0.007504
PT1483   PT        0.577615    0.227426    0.421080     0.004505
AU1484   AU        0.576306    0.264916    0.384032     0.007504
PT1485   PT        0.618053    0.225583    0.382353     0.004505
AU1486   AU        0.615383    0.263644    0.421388     0.007504
PT1487   PT        0.656084    0.228028    0.421649     0.004505
PT1488   PT        0.656527    0.265404    0.385271     0.004505
AU1489   AU        0.693791    0.227628    0.382720     0.007504
PT1490   PT        0.694841    0.264596    0.421120     0.004505
PT1491   PT        0.733702    0.225549    0.422768     0.004505
PT1492   PT        0.732904    0.265242    0.385172     0.004505
AU1493   AU        0.769439    0.227523    0.385438     0.007504
PT1494   PT        0.768902    0.265081    0.424341     0.004505
PT1495   PT        0.807176    0.228267    0.424208     0.004505
PT1496   PT        0.807817    0.266036    0.386307     0.004505
AU1497   AU        0.844666    0.229363    0.385931     0.007504
PT1498   PT        0.846353    0.266484    0.422679     0.004505
PT1499   PT        0.882652    0.267396    0.383463     0.004505
PT1500   PT        0.042049    0.302805    0.422000     0.004505
PT1501   PT        0.041864    0.342087    0.381127     0.004505
PT1502   PT        0.077359    0.303872    0.382597     0.004505
PT1503   PT        0.076039    0.342678    0.421938     0.004505
PT1504   PT        0.114983    0.305313    0.422103     0.004505
AU1505   AU        0.114752    0.341991    0.383553     0.007504
PT1506   PT        0.151732    0.304500    0.382920     0.004505
AU1507   AU        0.151318    0.342474    0.423871     0.007504
AU1508   AU        0.190743    0.304866    0.420426     0.007504
AU1509   AU        0.189258    0.343742    0.382860     0.007504
AU1510   AU        0.227781    0.302773    0.383353     0.007504
PT1511   PT        0.229599    0.345822    0.422058     0.004505
AU1512   AU        0.266176    0.303459    0.420834     0.007504
AU1513   AU        0.266519    0.342876    0.382395     0.007504
AU1514   AU        0.306451    0.302913    0.382377     0.007504
AU1515   AU        0.305238    0.340925    0.420538     0.007504
AU1516   AU        0.343055    0.303910    0.421096     0.007504
AU1517   AU        0.345274    0.344819    0.382792     0.007504
AU1518   AU        0.384237    0.304331    0.384844     0.007504
AU1519   AU        0.381712    0.341168    0.420205     0.007504
AU1520   AU        0.425738    0.305570    0.421859     0.007504
AU1521   AU        0.424824    0.342081    0.383945     0.007504
AU1522   AU        0.462013    0.304558    0.382842     0.007504
AU1523   AU        0.463094    0.341793    0.423594     0.007504
AU1524   AU        0.501601    0.304174    0.424670     0.007504
PT1525   PT        0.501635    0.343592    0.385438     0.004505
AU1526   AU        0.537672    0.303235    0.385354     0.007504
AU1527   AU        0.541008    0.342590    0.422690     0.007504
AU1528   AU        0.575485    0.303078    0.422789     0.007504
AU1529   AU        0.578452    0.340583    0.385571     0.007504
AU1530   AU        0.617066    0.300541    0.383867     0.007504
AU1531   AU        0.615817    0.343023    0.424763     0.007504
AU1532   AU        0.653289    0.302617    0.423062     0.007504
AU1533   AU        0.651437    0.340208    0.384004     0.007504
PT1534   PT        0.693528    0.306108    0.382843     0.004505
AU1535   AU        0.695214    0.340572    0.423018     0.007504
PT1536   PT        0.732517    0.302324    0.422262     0.004505
PT1537   PT        0.732217    0.341966    0.384773     0.004505
AU1538   AU        0.770612    0.303418    0.384463     0.007504
PT1539   PT        0.771946    0.340665    0.422417     0.004505
AU1540   AU        0.808209    0.303656    0.423828     0.007504
PT1541   PT        0.808400    0.339446    0.384893     0.004505
PT1542   PT        0.845290    0.303260    0.384307     0.004505
PT1543   PT        0.846439    0.341290    0.423000     0.004505
PT1544   PT        0.883877    0.302218    0.422975     0.004505
AU1545   AU        0.882525    0.339703    0.383333     0.007504
AU1546   AU        0.002666    0.418958    0.424666     0.007504
AU1547   AU        0.038337    0.379831    0.424027     0.007504
AU1548   AU        0.039629    0.420135    0.385722     0.007504
PT1549   PT        0.077286    0.379184    0.383330     0.004505
AU1550   AU        0.076548    0.418938    0.422443     0.007504
AU1551   AU        0.114043    0.378647    0.423444     0.007504
AU1552   AU        0.112067    0.418974    0.384668     0.007504
AU1553   AU        0.151738    0.380172    0.382553     0.007504
AU1554   AU        0.152440    0.419973    0.422325     0.007504
AU1555   AU        0.190978    0.381619    0.424771     0.007504
AU1556   AU        0.191231    0.418485    0.385058     0.007504
AU1557   AU        0.229177    0.382536    0.383426     0.007504
AU1558   AU        0.230468    0.420930    0.424013     0.007504
AU1559   AU        0.266392    0.382674    0.422257     0.007504
AU1560   AU        0.267837    0.419593    0.382926     0.007504
AU1561   AU        0.305560    0.380394    0.384248     0.007504
AU1562   AU        0.304764    0.421219    0.421867     0.007504
AU1563   AU        0.340626    0.381431    0.421300     0.007504
AU1564   AU        0.344901    0.420259    0.382408     0.007504
AU1565   AU        0.382632    0.382214    0.382249     0.007504
PT1566   PT        0.382160    0.419005    0.418621     0.004505
AU1567   AU        0.423857    0.381002    0.424873     0.007504
AU1568   AU        0.423147    0.418953    0.384140     0.007504
AU1569   AU        0.460058    0.382212    0.383449     0.007504
AU1570   AU        0.465176    0.419928    0.421345     0.007504
AU1571   AU        0.500256    0.380895    0.423481     0.007504
AU1572   AU        0.500987    0.420659    0.384033     0.007504
AU1573   AU        0.539908    0.380930    0.384645     0.007504
AU1574   AU        0.537517    0.417053    0.423656     0.007504
AU1575   AU        0.578571    0.382349    0.423020     0.007504
AU1576   AU        0.578083    0.418594    0.385669     0.007504
AU1577   AU        0.616394    0.381547    0.387141     0.007504
AU1578   AU        0.616202    0.419437    0.424764     0.007504
AU1579   AU        0.654474    0.381506    0.422572     0.007504
AU1580   AU        0.654195    0.418256    0.385034     0.007504
AU1581   AU        0.692490    0.382567    0.385212     0.007504
AU1582   AU        0.695472    0.420957    0.421612     0.007504
AU1583   AU        0.731701    0.381532    0.419914     0.007504
AU1584   AU        0.731537    0.419539    0.383245     0.007504
AU1585   AU        0.769496    0.380278    0.383423     0.007504
AU1586   AU        0.771583    0.419778    0.421201     0.007504
PT1587   PT        0.808581    0.380039    0.421981     0.004505
AU1588   AU        0.809854    0.419366    0.383768     0.007504
PT1589   PT        0.846158    0.379578    0.382352     0.004505
PT1590   PT        0.846311    0.417651    0.422928     0.004505
PT1591   PT        0.882198    0.379401    0.422286     0.004505
AU1592   AU        0.882728    0.419772    0.385390     0.007504
PT1593   PT        0.919324    0.418935    0.422897     0.004505
PT1594   PT        0.002041    0.457625    0.386165     0.004505
PT1595   PT        0.002784    0.494829    0.423203     0.004505
PT1596   PT        0.040044    0.456469    0.423969     0.004505
PT1597   PT        0.040548    0.496211    0.384509     0.004505
PT1598   PT        0.077457    0.458001    0.383504     0.004505
PT1599   PT        0.075428    0.495443    0.422894     0.004505
AU1600   AU        0.113805    0.458487    0.421012     0.007504
AU1601   AU        0.112502    0.498289    0.382911     0.007504
AU1602   AU        0.149972    0.457030    0.384889     0.007504
AU1603   AU        0.151697    0.495769    0.422739     0.007504
AU1604   AU        0.189426    0.458737    0.420513     0.007504
AU1605   AU        0.190332    0.496136    0.381862     0.007504
AU1606   AU        0.230091    0.459514    0.383515     0.007504
PT1607   PT        0.230415    0.497125    0.420689     0.004505
AU1608   AU        0.268857    0.459206    0.422826     0.007504
AU1609   AU        0.267578    0.495905    0.382809     0.007504
AU1610   AU        0.307856    0.457328    0.382746     0.007504
AU1611   AU        0.307981    0.497722    0.421851     0.007504
AU1612   AU        0.344508    0.458008    0.421177     0.007504
AU1613   AU        0.345277    0.495336    0.383571     0.007504
AU1614   AU        0.384434    0.457489    0.382541     0.007504
AU1615   AU        0.381688    0.496522    0.422507     0.007504
PT1616   PT        0.424426    0.456223    0.419471     0.004505
AU1617   AU        0.421526    0.495476    0.386066     0.007504
AU1618   AU        0.462820    0.458303    0.382707     0.007504
AU1619   AU        0.462290    0.495221    0.423087     0.007504
AU1620   AU        0.502221    0.458160    0.422797     0.007504
AU1621   AU        0.499261    0.496113    0.382218     0.007504
PT1622   PT        0.539521    0.457540    0.381814     0.004505
AU1623   AU        0.537735    0.496407    0.421760     0.007504
AU1624   AU        0.576128    0.459286    0.421823     0.007504
AU1625   AU        0.577036    0.496619    0.383381     0.007504
AU1626   AU        0.614312    0.459358    0.384981     0.007504
AU1627   AU        0.614002    0.495577    0.423176     0.007504
AU1628   AU        0.653983    0.459090    0.423449     0.007504
AU1629   AU        0.652776    0.495321    0.382852     0.007504
AU1630   AU        0.691965    0.459315    0.385457     0.007504
AU1631   AU        0.695175    0.496396    0.423223     0.007504
AU1632   AU        0.733177    0.459087    0.420867     0.007504
AU1633   AU        0.732386    0.495955    0.383566     0.007504
PT1634   PT        0.771624    0.455696    0.381191     0.004505
AU1635   AU        0.770151    0.495496    0.421065     0.007504
PT1636   PT        0.809986    0.456743    0.420835     0.004505
PT1637   PT        0.808355    0.494797    0.383118     0.004505
PT1638   PT        0.846703    0.458710    0.383589     0.004505
AU1639   AU        0.847489    0.496820    0.421383     0.007504
AU1640   AU        0.881110    0.457906    0.423974     0.007504
AU1641   AU        0.882543    0.495227    0.383763     0.007504
PT1642   PT        0.917167    0.456439    0.385610     0.004505
PT1643   PT        0.917356    0.494067    0.423049     0.004505
PT1644   PT        0.039933    0.533601    0.424381     0.004505
PT1645   PT        0.041120    0.573247    0.384688     0.004505
AU1646   AU        0.076459    0.536125    0.383217     0.007504
AU1647   AU        0.075412    0.574801    0.422745     0.007504
PT1648   PT        0.112654    0.536485    0.422528     0.004505
AU1649   AU        0.112761    0.573034    0.384788     0.007504
PT1650   PT        0.151949    0.535862    0.382428     0.004505
PT1651   PT        0.152149    0.573609    0.422791     0.004505
PT1652   PT        0.191702    0.536342    0.420483     0.004505
AU1653   AU        0.191280    0.573700    0.382344     0.007504
AU1654   AU        0.229447    0.534961    0.384343     0.007504
AU1655   AU        0.229421    0.573109    0.424078     0.007504
AU1656   AU        0.268561    0.533932    0.422914     0.007504
AU1657   AU        0.267650    0.573542    0.384672     0.007504
AU1658   AU        0.305285    0.532869    0.384528     0.007504
AU1659   AU        0.304969    0.573643    0.421590     0.007504
AU1660   AU        0.343321    0.534559    0.422480     0.007504
AU1661   AU        0.344113    0.575322    0.381625     0.007504
AU1662   AU        0.382877    0.533084    0.384437     0.007504
AU1663   AU        0.381525    0.570841    0.423817     0.007504
AU1664   AU        0.422137    0.531669    0.422211     0.007504
PT1665   PT        0.421765    0.571938    0.385164     0.004505
AU1666   AU        0.461830    0.533981    0.384899     0.007504
AU1667   AU        0.460308    0.572018    0.422209     0.007504
AU1668   AU        0.498320    0.533169    0.423291     0.007504
AU1669   AU        0.500202    0.575540    0.384256     0.007504
AU1670   AU        0.537759    0.533938    0.384336     0.007504
AU1671   AU        0.536218    0.572281    0.422712     0.007504
PT1672   PT        0.574867    0.533852    0.423186     0.004505
AU1673   AU        0.577238    0.572392    0.384176     0.007504
AU1674   AU        0.615800    0.532298    0.382736     0.007504
AU1675   AU        0.616409    0.572119    0.424731     0.007504
AU1676   AU        0.654233    0.532239    0.423523     0.007504
AU1677   AU        0.654198    0.570234    0.384816     0.007504
AU1678   AU        0.692735    0.533050    0.382182     0.007504
PT1679   PT        0.693262    0.573311    0.424000     0.004505
AU1680   AU        0.731767    0.537796    0.422097     0.007504
PT1681   PT        0.732973    0.577292    0.382651     0.004505
AU1682   AU        0.770478    0.535158    0.383840     0.007504
AU1683   AU        0.769528    0.572793    0.423317     0.007504
AU1684   AU        0.808658    0.534500    0.425869     0.007504
PT1685   PT        0.809408    0.574905    0.385327     0.004505
PT1686   PT        0.845127    0.534819    0.384370     0.004505
PT1687   PT        0.844650    0.574623    0.424644     0.004505
PT1688   PT        0.883404    0.534569    0.422607     0.004505
AU1689   AU        0.881950    0.572013    0.384283     0.007504
PT1690   PT        0.041297    0.613111    0.422747     0.004505
PT1691   PT        0.040746    0.649462    0.385095     0.004505
AU1692   AU        0.076994    0.612089    0.383495     0.007504
PT1693   PT        0.077011    0.650463    0.423111     0.004505
PT1694   PT        0.113965    0.612197    0.421776     0.004505
AU1695   AU        0.113263    0.650848    0.383581     0.007504
PT1696   PT        0.154221    0.612630    0.383696     0.004505
AU1697   AU        0.152165    0.649596    0.422955     0.007504
AU1698   AU        0.189449    0.610217    0.423497     0.007504
AU1699   AU        0.190495    0.651045    0.385130     0.007504
PT1700   PT        0.229668    0.610596    0.382739     0.004505
AU1701   AU        0.230507    0.651994    0.423023     0.007504
AU1702   AU        0.264699    0.611429    0.421133     0.007504
PT1703   PT        0.268705    0.652839    0.383126     0.004505
PT1704   PT        0.307218    0.612079    0.382530     0.004505
PT1705   PT        0.305952    0.647962    0.424630     0.004505
AU1706   AU        0.345622    0.611150    0.422571     0.007504
AU1707   AU        0.344316    0.651541    0.384745     0.007504
AU1708   AU        0.385898    0.611110    0.382000     0.007504
PT1709   PT        0.386312    0.649652    0.420311     0.004505
PT1710   PT        0.426764    0.613983    0.422161     0.004505
AU1711   AU        0.424232    0.650095    0.382670     0.007504
AU1712   AU        0.459949    0.612767    0.383313     0.007504
AU1713   AU        0.461902    0.651863    0.424345     0.007504
AU1714   AU        0.500652    0.611056    0.425056     0.007504
AU1715   AU        0.497839    0.650815    0.382986     0.007504
AU1716   AU        0.539279    0.611538    0.385774     0.007504
AU1717   AU        0.540370    0.649211    0.424607     0.007504
AU1718   AU        0.578201    0.610499    0.424544     0.007504
AU1719   AU        0.577461    0.647015    0.384142     0.007504
AU1720   AU        0.616044    0.608723    0.385511     0.007504
AU1721   AU        0.615393    0.648713    0.422169     0.007504
AU1722   AU        0.652657    0.611089    0.423846     0.007504
PT1723   PT        0.656114    0.651562    0.385423     0.004505
PT1724   PT        0.694713    0.611377    0.383249     0.004505
PT1725   PT        0.692410    0.647607    0.422802     0.004505
AU1726   AU        0.733061    0.611253    0.424164     0.007504
PT1727   PT        0.732370    0.652178    0.382344     0.004505
PT1728   PT        0.769518    0.614234    0.383775     0.004505
AU1729   AU        0.771394    0.650331    0.421950     0.007504
AU1730   AU        0.809204    0.610994    0.423403     0.007504
AU1731   AU        0.807250    0.650683    0.384163     0.007504
AU1732   AU        0.845464    0.612662    0.383350     0.007504
PT1733   PT        0.842707    0.651487    0.422881     0.004505
PT1734   PT        0.882181    0.612219    0.421727     0.004505
PT1735   PT        0.881936    0.650064    0.385720     0.004505
AU1736   AU        0.076783    0.687673    0.383673     0.007504
PT1737   PT        0.040112    0.686019    0.423187     0.004505
PT1738   PT        0.115567    0.688168    0.420853     0.004505
PT1739   PT        0.115809    0.727650    0.384401     0.004505
AU1740   AU        0.152812    0.688450    0.384832     0.007504
AU1741   AU        0.153622    0.726948    0.421561     0.007504
AU1742   AU        0.188908    0.689358    0.423489     0.007504
AU1743   AU        0.191610    0.728900    0.384828     0.007504
AU1744   AU        0.229569    0.686800    0.384208     0.007504
AU1745   AU        0.227411    0.726063    0.421713     0.007504
PT1746   PT        0.267483    0.690114    0.420955     0.004505
AU1747   AU        0.267249    0.729514    0.383226     0.007504
PT1748   PT        0.306716    0.691827    0.382520     0.004505
PT1749   PT        0.304976    0.727723    0.421134     0.004505
AU1750   AU        0.344618    0.690326    0.419889     0.007504
PT1751   PT        0.345466    0.728457    0.382626     0.004505
AU1752   AU        0.384089    0.688928    0.382616     0.007504
AU1753   AU        0.381725    0.727919    0.421643     0.007504
AU1754   AU        0.423580    0.687919    0.423371     0.007504
AU1755   AU        0.420886    0.730247    0.381581     0.007504
AU1756   AU        0.460346    0.688550    0.380483     0.007504
AU1757   AU        0.461994    0.729782    0.426574     0.007504
PT1758   PT        0.503507    0.688010    0.421651     0.004505
AU1759   AU        0.500949    0.725112    0.383255     0.007504
AU1760   AU        0.538961    0.690242    0.383542     0.007504
PT1761   PT        0.539299    0.728402    0.421609     0.004505
AU1762   AU        0.578017    0.690170    0.419660     0.007504
PT1763   PT        0.580436    0.727581    0.382776     0.004505
AU1764   AU        0.616676    0.687435    0.384727     0.007504
AU1765   AU        0.615094    0.728676    0.421999     0.007504
AU1766   AU        0.653690    0.689439    0.424633     0.007504
PT1767   PT        0.651944    0.727087    0.385135     0.004505
PT1768   PT        0.692046    0.692936    0.382287     0.004505
AU1769   AU        0.692022    0.726500    0.424025     0.007504
AU1770   AU        0.731362    0.690113    0.422377     0.007504
AU1771   AU        0.732041    0.727537    0.383251     0.007504
PT1772   PT        0.769410    0.687951    0.385750     0.004505
PT1773   PT        0.770702    0.726231    0.423201     0.004505
AU1774   AU        0.807477    0.688429    0.424586     0.007504
PT1775   PT        0.805724    0.724617    0.384267     0.004505
PT1776   PT        0.842342    0.688509    0.385761     0.004505
AU1777   AU        0.843348    0.726097    0.423645     0.007504
PT1778   PT        0.117083    0.765000    0.422978     0.004505
AU1779   AU        0.154052    0.765554    0.384962     0.007504
PT1780   PT        0.154546    0.800813    0.425998     0.004505
AU1781   AU        0.190914    0.764441    0.423120     0.007504
AU1782   AU        0.193093    0.802701    0.386239     0.007504
PT1783   PT        0.227964    0.766266    0.383865     0.004505
PT1784   PT        0.229885    0.803704    0.423965     0.004505
PT1785   PT        0.266726    0.766802    0.422602     0.004505
AU1786   AU        0.268988    0.803235    0.384723     0.007504
AU1787   AU        0.306941    0.765118    0.384646     0.007504
AU1788   AU        0.307023    0.803125    0.423400     0.007504
PT1789   PT        0.343135    0.765248    0.420759     0.004505
AU1790   AU        0.344595    0.804829    0.385004     0.007504
AU1791   AU        0.383139    0.767988    0.383076     0.007504
PT1792   PT        0.384255    0.804511    0.420030     0.004505
PT1793   PT        0.421906    0.765548    0.420029     0.004505
PT1794   PT        0.420988    0.805762    0.382043     0.004505
AU1795   AU        0.458418    0.767302    0.382071     0.007504
PT1796   PT        0.460147    0.805493    0.420620     0.004505
AU1797   AU        0.500229    0.766213    0.422040     0.007504
PT1798   PT        0.500044    0.805434    0.384507     0.004505
AU1799   AU        0.538730    0.767080    0.383712     0.007504
PT1800   PT        0.535443    0.805205    0.423992     0.004505
AU1801   AU        0.578017    0.767242    0.421010     0.007504
PT1802   PT        0.577477    0.803509    0.380940     0.004505
AU1803   AU        0.616678    0.765851    0.384214     0.007504
AU1804   AU        0.615494    0.802581    0.423833     0.007504
PT1805   PT        0.655474    0.767206    0.421266     0.004505
AU1806   AU        0.652791    0.804222    0.384708     0.007504
PT1807   PT        0.692329    0.764393    0.383758     0.004505
PT1808   PT        0.693922    0.801960    0.424061     0.004505
AU1809   AU        0.729467    0.763053    0.421362     0.007504
AU1810   AU        0.729609    0.801949    0.386435     0.007504
PT1811   PT        0.769170    0.762446    0.384944     0.004505
PT1812   PT        0.767098    0.800368    0.422530     0.004505
PT1813   PT        0.806579    0.765115    0.419715     0.004505
PT1814   PT        0.192099    0.840512    0.423010     0.004505
PT1815   PT        0.229844    0.841630    0.386761     0.004505
AU1816   AU        0.267653    0.840752    0.423429     0.007504
PT1817   PT        0.268777    0.876532    0.382526     0.004505
PT1818   PT        0.305940    0.840648    0.384155     0.004505
PT1819   PT        0.304892    0.876806    0.422102     0.004505
PT1820   PT        0.344580    0.843306    0.420543     0.004505
PT1821   PT        0.343297    0.876949    0.383446     0.004505
AU1822   AU        0.382962    0.842972    0.383902     0.007504
PT1823   PT        0.382759    0.878262    0.425296     0.004505
AU1824   AU        0.420907    0.840799    0.423517     0.007504
PT1825   PT        0.423756    0.877572    0.386725     0.004505
PT1826   PT        0.463111    0.841381    0.383139     0.004505
AU1827   AU        0.461185    0.877444    0.422605     0.007504
PT1828   PT        0.499257    0.841286    0.420804     0.004505
PT1829   PT        0.500725    0.878843    0.384008     0.004505
AU1830   AU        0.538083    0.840670    0.384311     0.007504
PT1831   PT        0.538037    0.877585    0.422988     0.004505
PT1832   PT        0.575326    0.841001    0.421011     0.004505
PT1833   PT        0.576340    0.876038    0.383701     0.004505
PT1834   PT        0.614537    0.842215    0.382419     0.004505
PT1835   PT        0.614925    0.874414    0.422446     0.004505
PT1836   PT        0.654223    0.839089    0.422792     0.004505
AU1837   AU        0.733214    0.879666    0.387608     0.007504
PT1838   PT        0.692481    0.839871    0.384578     0.004505
PT1839   PT        0.730951    0.840881    0.423380     0.004505
PT1840   PT        0.424342    0.917086    0.422075     0.004505
AU1841   AU        0.460833    0.915034    0.386917     0.007504
PT1842   PT        0.498153    0.913918    0.423112     0.004505
PT1843   PT        0.268698    0.040222    0.460728     0.004505
PT1844   PT        0.308172    0.040150    0.500284     0.004505
AU1845   AU        0.345474    0.039426    0.458534     0.007504
PT1846   PT        0.385462    0.005515    0.458503     0.004505
AU1847   AU        0.386386    0.038887    0.498898     0.007504
PT1848   PT        0.424453    0.004072    0.499043     0.004505
PT1849   PT        0.423316    0.041344    0.461487     0.004505
PT1850   PT        0.461116    0.007525    0.460287     0.004505
AU1851   AU        0.461390    0.039609    0.500382     0.007504
PT1852   PT        0.499377    0.004835    0.496471     0.004505
AU1853   AU        0.500089    0.040758    0.461188     0.007504
PT1854   PT        0.537102    0.005582    0.461137     0.004505
AU1855   AU        0.540049    0.040380    0.500652     0.007504
PT1856   PT        0.577571    0.040192    0.460888     0.004505
PT1857   PT        0.616251    0.037552    0.499176     0.004505
PT1858   PT        0.655831    0.039377    0.460854     0.004505
PT1859   PT        0.155005    0.112334    0.497738     0.004505
PT1860   PT        0.193719    0.076333    0.497505     0.004505
PT1861   PT        0.192506    0.111627    0.461218     0.004505
PT1862   PT        0.231838    0.077575    0.460320     0.004505
PT1863   PT        0.230962    0.113350    0.499762     0.004505
PT1864   PT        0.270288    0.075509    0.500365     0.004505
AU1865   AU        0.269640    0.112008    0.462558     0.007504
PT1866   PT        0.307081    0.074379    0.460601     0.004505
PT1867   PT        0.306006    0.111938    0.499629     0.004505
PT1868   PT        0.345058    0.074944    0.499669     0.004505
AU1869   AU        0.344353    0.112147    0.460739     0.007504
PT1870   PT        0.381976    0.075923    0.460497     0.004505
AU1871   AU        0.382383    0.111900    0.500336     0.007504
PT1872   PT        0.423554    0.075225    0.501431     0.004505
AU1873   AU        0.422449    0.112899    0.462497     0.007504
PT1874   PT        0.461883    0.077630    0.462571     0.004505
PT1875   PT        0.461926    0.110714    0.502302     0.004505
AU1876   AU        0.500825    0.073680    0.502416     0.007504
PT1877   PT        0.502075    0.112841    0.462806     0.004505
PT1878   PT        0.538697    0.076601    0.461121     0.004505
AU1879   AU        0.539872    0.111506    0.501101     0.007504
PT1880   PT        0.579961    0.075076    0.499250     0.004505
PT1881   PT        0.580527    0.112678    0.462044     0.004505
AU1882   AU        0.618609    0.074250    0.461346     0.007504
AU1883   AU        0.618542    0.112161    0.498985     0.007504
PT1884   PT        0.655853    0.075652    0.498761     0.004505
AU1885   AU        0.656044    0.111845    0.462155     0.007504
AU1886   AU        0.691729    0.074784    0.459780     0.007504
AU1887   AU        0.693732    0.110896    0.498965     0.007504
PT1888   PT        0.731255    0.072974    0.498929     0.004505
PT1889   PT        0.733403    0.111245    0.462042     0.004505
AU1890   AU        0.769583    0.112220    0.497865     0.007504
PT1891   PT        0.078706    0.191431    0.500323     0.004505
PT1892   PT        0.117388    0.153855    0.497645     0.004505
AU1893   AU        0.113579    0.188466    0.461491     0.007504
PT1894   PT        0.154548    0.148876    0.461709     0.004505
PT1895   PT        0.155854    0.188009    0.500880     0.004505
PT1896   PT        0.192523    0.149031    0.498942     0.004505
PT1897   PT        0.191651    0.187215    0.460761     0.004505
PT1898   PT        0.228487    0.150411    0.461338     0.004505
AU1899   AU        0.229491    0.186851    0.497827     0.007504
PT1900   PT        0.267263    0.150162    0.498379     0.004505
PT1901   PT        0.266570    0.187728    0.460770     0.004505
PT1902   PT        0.307458    0.148851    0.462105     0.004505
PT1903   PT        0.307305    0.185949    0.501521     0.004505
PT1904   PT        0.346748    0.150675    0.500643     0.004505
AU1905   AU        0.348598    0.186703    0.461652     0.007504
AU1906   AU        0.384911    0.148904    0.463378     0.007504
PT1907   PT        0.386193    0.185908    0.501832     0.004505
AU1908   AU        0.423874    0.148894    0.500808     0.007504
AU1909   AU        0.421703    0.186875    0.462492     0.007504
AU1910   AU        0.462161    0.149128    0.460563     0.007504
AU1911   AU        0.460404    0.186990    0.500218     0.007504
AU1912   AU        0.501895    0.147918    0.502785     0.007504
AU1913   AU        0.500314    0.185873    0.462553     0.007504
AU1914   AU        0.541354    0.149730    0.460682     0.007504
AU1915   AU        0.539886    0.186446    0.500610     0.007504
AU1916   AU        0.581437    0.148347    0.500110     0.007504
AU1917   AU        0.579579    0.186957    0.464464     0.007504
PT1918   PT        0.619614    0.147773    0.461898     0.004505
PT1919   PT        0.617109    0.185828    0.499948     0.004505
AU1920   AU        0.658299    0.147526    0.500189     0.007504
PT1921   PT        0.658233    0.185782    0.461104     0.004505
PT1922   PT        0.694878    0.148270    0.460851     0.004505
AU1923   AU        0.694034    0.186044    0.501530     0.007504
AU1924   AU        0.732270    0.149935    0.497411     0.007504
AU1925   AU        0.733254    0.188708    0.461437     0.007504
PT1926   PT        0.771738    0.149670    0.462397     0.004505
PT1927   PT        0.771120    0.188504    0.500398     0.004505
AU1928   AU        0.807729    0.151447    0.499433     0.007504
AU1929   AU        0.808761    0.187724    0.461872     0.007504
AU1930   AU        0.846871    0.188765    0.500266     0.007504
PT1931   PT        0.042587    0.264059    0.462067     0.004505
PT1932   PT        0.078342    0.227340    0.461319     0.004505
PT1933   PT        0.077284    0.263781    0.501818     0.004505
PT1934   PT        0.114378    0.227685    0.498766     0.004505
AU1935   AU        0.113697    0.263986    0.462413     0.007504
AU1936   AU        0.151389    0.225913    0.460250     0.007504
PT1937   PT        0.153483    0.263027    0.499048     0.004505
PT1938   PT        0.191654    0.225725    0.497845     0.004505
AU1939   AU        0.190131    0.263389    0.460818     0.007504
PT1940   PT        0.227737    0.226533    0.460702     0.004505
PT1941   PT        0.227202    0.265985    0.498570     0.004505
AU1942   AU        0.264740    0.227429    0.499547     0.007504
AU1943   AU        0.265132    0.266127    0.459652     0.007504
PT1944   PT        0.301838    0.230062    0.458173     0.004505
PT1945   PT        0.301915    0.268153    0.494234     0.004505
PT1946   PT        0.349548    0.223090    0.503291     0.004505
PT1947   PT        0.343509    0.267695    0.456932     0.004505
PT1948   PT        0.385982    0.225617    0.460513     0.004505
PT1949   PT        0.387598    0.260002    0.502509     0.004505
AU1950   AU        0.422663    0.223336    0.500390     0.007504
AU1951   AU        0.421588    0.266996    0.460971     0.007504
AU1952   AU        0.460309    0.224993    0.462399     0.007504
AU1953   AU        0.458787    0.265514    0.499041     0.007504
AU1954   AU        0.503513    0.225984    0.499684     0.007504
AU1955   AU        0.499134    0.267313    0.460453     0.007504
AU1956   AU        0.540051    0.223647    0.460605     0.007504
AU1957   AU        0.542075    0.264256    0.498877     0.007504
AU1958   AU        0.578835    0.227798    0.503046     0.007504
AU1959   AU        0.577903    0.265724    0.461464     0.007504
AU1960   AU        0.615760    0.225602    0.460949     0.007504
PT1961   PT        0.617831    0.266784    0.500059     0.004505
PT1962   PT        0.655301    0.224947    0.498931     0.004505
PT1963   PT        0.653281    0.265092    0.458941     0.004505
PT1964   PT        0.695886    0.225869    0.462427     0.004505
AU1965   AU        0.695060    0.262900    0.501380     0.007504
PT1966   PT        0.733418    0.225559    0.501241     0.004505
PT1967   PT        0.733208    0.264391    0.460703     0.004505
AU1968   AU        0.772218    0.227148    0.462333     0.007504
AU1969   AU        0.769714    0.266172    0.501043     0.007504
PT1970   PT        0.808561    0.226223    0.499771     0.004505
PT1971   PT        0.809495    0.265033    0.462440     0.004505
PT1972   PT        0.843630    0.226922    0.460808     0.004505
PT1973   PT        0.845783    0.265638    0.500789     0.004505
AU1974   AU        0.881104    0.265589    0.461026     0.007504
PT1975   PT        0.040999    0.301311    0.499561     0.004505
PT1976   PT        0.041756    0.342019    0.460828     0.004505
PT1977   PT        0.076877    0.303776    0.461458     0.004505
AU1978   AU        0.077268    0.341420    0.498887     0.007504
PT1979   PT        0.114594    0.301833    0.500273     0.004505
AU1980   AU        0.114335    0.341111    0.462881     0.007504
PT1981   PT        0.151761    0.302838    0.461141     0.004505
PT1982   PT        0.152382    0.340285    0.500384     0.004505
AU1983   AU        0.190363    0.302153    0.500341     0.007504
AU1984   AU        0.189146    0.342040    0.462413     0.007504
AU1985   AU        0.228438    0.304433    0.458997     0.007504
AU1986   AU        0.228802    0.344238    0.499635     0.007504
AU1987   AU        0.265168    0.304509    0.496002     0.007504
AU1988   AU        0.267711    0.342273    0.457383     0.007504
AU1989   AU        0.303249    0.304688    0.456400     0.007504
PT1990   PT        0.303106    0.342154    0.492425     0.004505
AU1991   AU        0.339182    0.305226    0.495498     0.007504
PT1992   PT        0.341902    0.342784    0.455941     0.004505
PT1993   PT        0.386859    0.305087    0.460346     0.004505
PT1994   PT        0.389508    0.340189    0.503977     0.004505
AU1995   AU        0.424239    0.304089    0.500595     0.007504
AU1996   AU        0.425797    0.342843    0.462495     0.007504
AU1997   AU        0.461660    0.302877    0.460479     0.007504
AU1998   AU        0.461146    0.340883    0.501835     0.007504
AU1999   AU        0.499104    0.303057    0.501170     0.007504
AU2000   AU        0.499419    0.341330    0.460949     0.007504
AU2001   AU        0.538374    0.304043    0.461303     0.007504
AU2002   AU        0.538148    0.342529    0.498050     0.007504
AU2003   AU        0.577472    0.304623    0.499372     0.007504
AU2004   AU        0.577650    0.344003    0.460028     0.007504
AU2005   AU        0.614464    0.304199    0.461694     0.007504
PT2006   PT        0.615231    0.342151    0.499171     0.004505
PT2007   PT        0.657605    0.303251    0.502532     0.004505
AU2008   AU        0.653751    0.341694    0.460933     0.007504
AU2009   AU        0.693739    0.302291    0.461493     0.007504
AU2010   AU        0.694338    0.340857    0.502206     0.007504
AU2011   AU        0.732155    0.301189    0.502596     0.007504
AU2012   AU        0.732724    0.338572    0.460599     0.007504
AU2013   AU        0.771439    0.301995    0.461322     0.007504
AU2014   AU        0.769624    0.340787    0.498339     0.007504
PT2015   PT        0.807452    0.302565    0.498366     0.004505
AU2016   AU        0.808886    0.342146    0.461614     0.007504
PT2017   PT        0.844997    0.303578    0.459969     0.004505
PT2018   PT        0.846443    0.341066    0.499338     0.004505
PT2019   PT        0.883399    0.303572    0.499816     0.004505
PT2020   PT        0.882632    0.341627    0.459737     0.004505
AU2021   AU        0.001662    0.379549    0.462300     0.007504
PT2022   PT        0.001955    0.418800    0.500420     0.004505
PT2023   PT        0.040522    0.378928    0.498750     0.004505
PT2024   PT        0.038815    0.418560    0.460166     0.004505
AU2025   AU        0.075853    0.379940    0.461119     0.007504
AU2026   AU        0.075547    0.418188    0.499331     0.007504
PT2027   PT        0.112958    0.381014    0.499716     0.004505
PT2028   PT        0.114352    0.419126    0.461084     0.004505
AU2029   AU        0.151802    0.382442    0.460114     0.007504
AU2030   AU        0.150456    0.417499    0.499812     0.007504
PT2031   PT        0.190662    0.382040    0.498349     0.004505
AU2032   AU        0.190400    0.421860    0.460307     0.007504
AU2033   AU        0.228127    0.382310    0.460844     0.007504
AU2034   AU        0.228856    0.418862    0.500124     0.007504
AU2035   AU        0.265351    0.381467    0.498495     0.007504
AU2036   AU        0.267293    0.420542    0.461390     0.007504
AU2037   AU        0.304272    0.381075    0.458909     0.007504
PT2038   PT        0.304509    0.420283    0.499777     0.004505
AU2039   AU        0.341369    0.384761    0.496612     0.007504
AU2040   AU        0.342776    0.421658    0.457912     0.007504
AU2041   AU        0.386500    0.375413    0.466165     0.007504
AU2042   AU        0.386522    0.415136    0.505812     0.007504
AU2043   AU        0.425512    0.378252    0.501428     0.007504
PT2044   PT        0.421228    0.415626    0.467688     0.004505
AU2045   AU        0.461552    0.380152    0.461598     0.007504
AU2046   AU        0.460483    0.419023    0.501278     0.007504
AU2047   AU        0.499958    0.380378    0.499131     0.007504
AU2048   AU        0.499167    0.421040    0.461862     0.007504
PT2049   PT        0.540431    0.382275    0.461553     0.004505
AU2050   AU        0.537140    0.419184    0.499396     0.007504
AU2051   AU        0.577524    0.382432    0.499189     0.007504
AU2052   AU        0.577762    0.422112    0.462223     0.007504
AU2053   AU        0.615878    0.381119    0.460885     0.007504
PT2054   PT        0.618024    0.417095    0.500162     0.004505
AU2055   AU        0.659030    0.380267    0.498989     0.007504
AU2056   AU        0.656881    0.418587    0.462264     0.007504
AU2057   AU        0.693648    0.377748    0.462594     0.007504
AU2058   AU        0.695419    0.418727    0.498490     0.007504
AU2059   AU        0.733680    0.380036    0.497969     0.007504
AU2060   AU        0.732786    0.418304    0.458744     0.007504
PT2061   PT        0.769418    0.379505    0.458975     0.004505
PT2062   PT        0.771838    0.418171    0.498418     0.004505
PT2063   PT        0.810239    0.379035    0.500196     0.004505
PT2064   PT        0.809935    0.416647    0.460840     0.004505
AU2065   AU        0.846053    0.379136    0.463111     0.007504
PT2066   PT        0.846118    0.418559    0.500823     0.004505
PT2067   PT        0.884250    0.381411    0.498365     0.004505
PT2068   PT        0.883526    0.419899    0.461034     0.004505
PT2069   PT        0.919649    0.381045    0.459114     0.004505
AU2070   AU        0.921674    0.418916    0.497215     0.007504
PT2071   PT        0.002324    0.456843    0.459921     0.004505
PT2072   PT        0.001134    0.491964    0.496990     0.004505
PT2073   PT        0.037539    0.456026    0.496874     0.004505
PT2074   PT        0.037879    0.496045    0.462647     0.004505
PT2075   PT        0.075590    0.456528    0.460525     0.004505
PT2076   PT        0.076372    0.495454    0.499138     0.004505
AU2077   AU        0.113970    0.456905    0.499817     0.007504
PT2078   PT        0.113885    0.496222    0.460674     0.004505
AU2079   AU        0.151582    0.458660    0.461044     0.007504
AU2080   AU        0.150779    0.495709    0.497585     0.007504
AU2081   AU        0.189718    0.458734    0.499408     0.007504
AU2082   AU        0.189886    0.495491    0.463711     0.007504
AU2083   AU        0.230392    0.458767    0.459524     0.007504
AU2084   AU        0.227733    0.495612    0.498979     0.007504
AU2085   AU        0.266569    0.458057    0.498987     0.007504
AU2086   AU        0.268297    0.497361    0.461170     0.007504
AU2087   AU        0.306455    0.459200    0.460521     0.007504
AU2088   AU        0.305091    0.497439    0.499742     0.007504
PT2089   PT        0.341723    0.460167    0.500123     0.004505
AU2090   AU        0.342857    0.497912    0.461835     0.007504
AU2091   AU        0.378486    0.461718    0.462020     0.007504
AU2092   AU        0.382538    0.497972    0.500763     0.007504
AU2093   AU        0.423315    0.456765    0.501847     0.007504
AU2094   AU        0.419855    0.498418    0.461409     0.007504
AU2095   AU        0.458510    0.455578    0.460907     0.007504
AU2096   AU        0.460679    0.496748    0.499570     0.007504
AU2097   AU        0.501704    0.458740    0.499798     0.007504
AU2098   AU        0.498918    0.495665    0.462492     0.007504
AU2099   AU        0.537106    0.456537    0.462116     0.007504
AU2100   AU        0.537873    0.496166    0.499840     0.007504
PT2101   PT        0.574517    0.459710    0.498830     0.004505
AU2102   AU        0.577969    0.497092    0.460759     0.007504
AU2103   AU        0.616388    0.458069    0.461753     0.007504
AU2104   AU        0.615275    0.497239    0.499683     0.007504
AU2105   AU        0.654413    0.457343    0.501100     0.007504
AU2106   AU        0.656845    0.495352    0.463613     0.007504
AU2107   AU        0.693465    0.457028    0.460486     0.007504
PT2108   PT        0.692335    0.497995    0.501179     0.004505
AU2109   AU        0.733333    0.457847    0.497135     0.007504
PT2110   PT        0.732518    0.495119    0.461156     0.004505
PT2111   PT        0.770711    0.456279    0.459887     0.004505
AU2112   AU        0.771219    0.496737    0.500495     0.007504
PT2113   PT        0.808866    0.457171    0.500515     0.004505
AU2114   AU        0.808333    0.494129    0.461002     0.007504
AU2115   AU        0.846314    0.455758    0.462426     0.007504
PT2116   PT        0.846041    0.496609    0.501589     0.004505
PT2117   PT        0.883850    0.455712    0.500251     0.004505
PT2118   PT        0.882376    0.494989    0.462740     0.004505
AU2119   AU        0.921100    0.456300    0.461388     0.007504
AU2120   AU        0.920367    0.493516    0.499767     0.007504
PT2121   PT        0.000769    0.532191    0.460736     0.004505
PT2122   PT        0.038046    0.531606    0.499542     0.004505
AU2123   AU        0.039231    0.574185    0.462017     0.007504
PT2124   PT        0.076308    0.534850    0.460542     0.004505
AU2125   AU        0.074742    0.572251    0.499979     0.007504
AU2126   AU        0.112823    0.534080    0.499761     0.007504
PT2127   PT        0.114825    0.572748    0.462742     0.004505
AU2128   AU        0.150166    0.534643    0.459521     0.007504
PT2129   PT        0.149156    0.574822    0.500465     0.004505
AU2130   AU        0.188964    0.535492    0.502227     0.007504
AU2131   AU        0.189585    0.573042    0.462919     0.007504
AU2132   AU        0.229425    0.534604    0.460661     0.007504
AU2133   AU        0.228366    0.573819    0.502881     0.007504
AU2134   AU        0.266025    0.534557    0.501498     0.007504
AU2135   AU        0.265540    0.573377    0.461209     0.007504
AU2136   AU        0.304014    0.534207    0.462544     0.007504
AU2137   AU        0.305805    0.572369    0.497963     0.007504
AU2138   AU        0.343079    0.534936    0.499722     0.007504
PT2139   PT        0.344014    0.573750    0.462792     0.004505
AU2140   AU        0.383884    0.535304    0.461993     0.007504
AU2141   AU        0.382437    0.572553    0.501276     0.007504
AU2142   AU        0.421763    0.534708    0.501189     0.007504
AU2143   AU        0.419436    0.574004    0.462799     0.007504
AU2144   AU        0.459525    0.534229    0.459610     0.007504
AU2145   AU        0.460112    0.571031    0.500674     0.007504
AU2146   AU        0.499451    0.535129    0.499864     0.007504
AU2147   AU        0.500500    0.572608    0.462819     0.007504
AU2148   AU        0.538391    0.532535    0.462361     0.007504
AU2149   AU        0.538711    0.570780    0.500390     0.007504
AU2150   AU        0.576971    0.535111    0.499666     0.007504
AU2151   AU        0.575880    0.573953    0.461370     0.007504
PT2152   PT        0.613170    0.534215    0.460944     0.004505
AU2153   AU        0.615963    0.574466    0.498235     0.007504
AU2154   AU        0.653324    0.535776    0.501402     0.007504
AU2155   AU        0.654918    0.572879    0.461848     0.007504
AU2156   AU        0.693392    0.534527    0.461953     0.007504
PT2157   PT        0.694679    0.571628    0.499723     0.004505
PT2158   PT        0.732960    0.533574    0.497898     0.004505
AU2159   AU        0.733239    0.573617    0.461563     0.007504
AU2160   AU        0.770136    0.533495    0.460704     0.007504
PT2161   PT        0.770646    0.573815    0.500498     0.004505
PT2162   PT        0.808848    0.533224    0.501001     0.004505
PT2163   PT        0.806939    0.572806    0.461835     0.004505
AU2164   AU        0.846837    0.535728    0.461065     0.007504
AU2165   AU        0.844150    0.572858    0.499863     0.007504
PT2166   PT        0.882776    0.535916    0.500750     0.004505
AU2167   AU        0.882058    0.572187    0.463000     0.007504
AU2168   AU        0.921452    0.571332    0.501607     0.007504
PT2169   PT        0.040815    0.612028    0.499169     0.004505
PT2170   PT        0.041282    0.649840    0.461590     0.004505
AU2171   AU        0.076710    0.611185    0.459966     0.007504
PT2172   PT        0.077054    0.651135    0.498978     0.004505
AU2173   AU        0.112395    0.612076    0.500168     0.007504
PT2174   PT        0.113712    0.650338    0.459741     0.004505
AU2175   AU        0.153636    0.612166    0.462364     0.007504
AU2176   AU        0.152239    0.649488    0.499190     0.007504
AU2177   AU        0.190027    0.611904    0.502600     0.007504
PT2178   PT        0.190712    0.649097    0.460832     0.004505
PT2179   PT        0.228526    0.612181    0.463536     0.004505
AU2180   AU        0.228746    0.652076    0.500492     0.007504
PT2181   PT        0.265703    0.612676    0.500661     0.004505
AU2182   AU        0.267170    0.650267    0.462333     0.007504
AU2183   AU        0.307317    0.612176    0.462009     0.007504
AU2184   AU        0.307375    0.648268    0.500563     0.007504
AU2185   AU        0.343779    0.610650    0.501011     0.007504
AU2186   AU        0.344367    0.648500    0.461353     0.007504
AU2187   AU        0.383511    0.612181    0.461705     0.007504
AU2188   AU        0.386089    0.651242    0.501867     0.007504
AU2189   AU        0.421753    0.612517    0.499122     0.007504
AU2190   AU        0.421680    0.650705    0.459688     0.007504
AU2191   AU        0.459940    0.611201    0.462511     0.007504
AU2192   AU        0.461610    0.649179    0.498579     0.007504
AU2193   AU        0.499358    0.610647    0.501354     0.007504
AU2194   AU        0.500200    0.648681    0.461158     0.007504
PT2195   PT        0.537328    0.611806    0.463382     0.004505
AU2196   AU        0.538658    0.650889    0.497907     0.007504
AU2197   AU        0.577610    0.611146    0.500948     0.007504
AU2198   AU        0.579175    0.647715    0.462113     0.007504
AU2199   AU        0.616609    0.612716    0.461048     0.007504
AU2200   AU        0.617672    0.648966    0.498341     0.007504
AU2201   AU        0.654866    0.611779    0.497147     0.007504
PT2202   PT        0.655531    0.649116    0.460314     0.004505
PT2203   PT        0.696444    0.610681    0.461586     0.004505
AU2204   AU        0.691456    0.652549    0.497559     0.007504
PT2205   PT        0.732549    0.612801    0.500915     0.004505
AU2206   AU        0.732876    0.650356    0.461005     0.007504
PT2207   PT        0.770179    0.611718    0.462139     0.004505
PT2208   PT        0.769667    0.649652    0.501059     0.004505
AU2209   AU        0.807918    0.611879    0.499633     0.007504
AU2210   AU        0.807819    0.649908    0.462799     0.007504
PT2211   PT        0.843927    0.611528    0.460994     0.004505
PT2212   PT        0.843351    0.650389    0.501152     0.004505
PT2213   PT        0.880041    0.611505    0.500967     0.004505
AU2214   AU        0.879920    0.649493    0.462724     0.007504
PT2215   PT        0.078700    0.687923    0.460747     0.004505
PT2216   PT        0.078580    0.728351    0.498854     0.004505
AU2217   AU        0.115599    0.689206    0.499025     0.007504
PT2218   PT        0.114430    0.726700    0.460358     0.004505
PT2219   PT        0.151275    0.687310    0.460802     0.004505
PT2220   PT        0.153012    0.727702    0.500043     0.004505
AU2221   AU        0.189473    0.688627    0.499830     0.007504
AU2222   AU        0.191229    0.726259    0.462219     0.007504
AU2223   AU        0.229430    0.689098    0.460284     0.007504
PT2224   PT        0.228627    0.726762    0.502634     0.004505
PT2225   PT        0.267599    0.690742    0.502020     0.004505
PT2226   PT        0.268560    0.726212    0.462057     0.004505
AU2227   AU        0.309863    0.688702    0.460980     0.007504
PT2228   PT        0.306195    0.729395    0.501500     0.004505
AU2229   AU        0.344723    0.688310    0.498606     0.007504
AU2230   AU        0.344911    0.728162    0.461294     0.007504
PT2231   PT        0.382734    0.688285    0.458836     0.004505
AU2232   AU        0.383365    0.728317    0.497231     0.007504
AU2233   AU        0.424538    0.687046    0.500576     0.007504
AU2234   AU        0.420562    0.724239    0.461822     0.007504
AU2235   AU        0.462817    0.688980    0.461197     0.007504
AU2236   AU        0.461503    0.727369    0.500209     0.007504
PT2237   PT        0.499973    0.687777    0.500004     0.004505
AU2238   AU        0.499339    0.727518    0.459576     0.007504
PT2239   PT        0.541650    0.691166    0.459988     0.004505
PT2240   PT        0.539502    0.727738    0.501180     0.004505
AU2241   AU        0.574155    0.689214    0.498879     0.007504
PT2242   PT        0.578147    0.728077    0.459779     0.004505
AU2243   AU        0.614519    0.688656    0.458563     0.007504
PT2244   PT        0.613816    0.730038    0.500231     0.004505
PT2245   PT        0.652321    0.689022    0.499017     0.004505
AU2246   AU        0.653266    0.727317    0.461643     0.007504
PT2247   PT        0.691531    0.689979    0.460186     0.004505
AU2248   AU        0.691599    0.727994    0.498930     0.007504
AU2249   AU        0.731142    0.690437    0.498899     0.007504
PT2250   PT        0.731158    0.727128    0.460999     0.004505
PT2251   PT        0.770246    0.687690    0.462351     0.004505
AU2252   AU        0.766700    0.725908    0.499230     0.007504
AU2253   AU        0.807126    0.689636    0.499942     0.007504
PT2254   PT        0.806260    0.725723    0.461849     0.004505
PT2255   PT        0.842675    0.688324    0.460655     0.004505
PT2256   PT        0.844579    0.724481    0.500325     0.004505
PT2257   PT        0.115195    0.764074    0.499272     0.004505
PT2258   PT        0.152126    0.762788    0.460645     0.004505
PT2259   PT        0.112443    0.802594    0.534015     0.004505
PT2260   PT        0.191726    0.764775    0.499429     0.004505
PT2261   PT        0.192497    0.804082    0.461933     0.004505
PT2262   PT        0.229282    0.763580    0.461356     0.004505
AU2263   AU        0.228656    0.802787    0.499830     0.007504
AU2264   AU        0.267914    0.766371    0.500958     0.007504
PT2265   PT        0.267331    0.805431    0.464058     0.004505
PT2266   PT        0.306867    0.767189    0.461616     0.004505
PT2267   PT        0.307320    0.805614    0.499858     0.004505
AU2268   AU        0.345946    0.767044    0.500335     0.007504
AU2269   AU        0.345094    0.805873    0.461851     0.007504
PT2270   PT        0.383214    0.768077    0.460675     0.004505
PT2271   PT        0.383975    0.805734    0.500888     0.004505
AU2272   AU        0.422260    0.767157    0.501909     0.007504
AU2273   AU        0.421017    0.804934    0.462567     0.007504
AU2274   AU        0.459065    0.766816    0.462910     0.007504
AU2275   AU        0.459694    0.805776    0.500843     0.007504
PT2276   PT        0.502165    0.766738    0.500711     0.004505
PT2277   PT        0.498401    0.804599    0.461992     0.004505
AU2278   AU        0.538913    0.767015    0.462448     0.007504
AU2279   AU        0.538689    0.805363    0.500724     0.007504
AU2280   AU        0.577715    0.764756    0.500547     0.007504
PT2281   PT        0.576164    0.804331    0.460139     0.004505
PT2282   PT        0.617325    0.765004    0.461107     0.004505
PT2283   PT        0.615446    0.802896    0.499137     0.004505
PT2284   PT        0.654102    0.765191    0.499293     0.004505
AU2285   AU        0.653522    0.802762    0.461644     0.007504
PT2286   PT        0.692674    0.765114    0.460899     0.004505
AU2287   AU        0.691966    0.801812    0.500188     0.007504
AU2288   AU        0.728829    0.763875    0.498941     0.007504
AU2289   AU        0.729065    0.800905    0.461567     0.007504
PT2290   PT        0.767345    0.764907    0.460172     0.004505
PT2291   PT        0.767233    0.799773    0.500326     0.004505
PT2292   PT        0.806048    0.761930    0.498707     0.004505
PT2293   PT        0.193784    0.840499    0.499555     0.004505
PT2294   PT        0.228725    0.841294    0.462461     0.004505
PT2295   PT        0.267521    0.840638    0.501590     0.004505
PT2296   PT        0.268700    0.877153    0.460426     0.004505
AU2297   AU        0.306994    0.839593    0.462317     0.007504
AU2298   AU        0.305627    0.877348    0.499936     0.007504
PT2299   PT        0.344214    0.842458    0.500170     0.004505
PT2300   PT        0.346108    0.877500    0.462167     0.004505
PT2301   PT        0.383105    0.840911    0.462902     0.004505
PT2302   PT        0.384350    0.878494    0.500641     0.004505
AU2303   AU        0.422729    0.841741    0.502129     0.007504
PT2304   PT        0.421478    0.879478    0.460493     0.004505
AU2305   AU        0.459425    0.842791    0.461015     0.007504
PT2306   PT        0.460612    0.879349    0.499846     0.004505
PT2307   PT        0.499479    0.841956    0.499734     0.004505
PT2308   PT        0.499086    0.876358    0.460997     0.004505
AU2309   AU        0.537610    0.840817    0.460936     0.007504
AU2310   AU        0.538434    0.877830    0.499056     0.007504
AU2311   AU        0.575098    0.841954    0.500862     0.007504
PT2312   PT        0.574244    0.876868    0.462951     0.004505
PT2313   PT        0.615163    0.840114    0.460687     0.004505
PT2314   PT        0.615586    0.874763    0.499086     0.004505
AU2315   AU        0.653243    0.839675    0.499694     0.007504
PT2316   PT        0.652225    0.875094    0.459531     0.004505
PT2317   PT        0.690338    0.838308    0.462813     0.004505
PT2318   PT        0.730696    0.839854    0.499089     0.004505
AU2319   AU        0.382010    0.914390    0.463993     0.007504
PT2320   PT        0.422038    0.914611    0.498168     0.004505
PT2321   PT        0.461774    0.913577    0.459502     0.004505
PT2322   PT        0.498627    0.914270    0.498408     0.004505
PT2323   PT        0.536295    0.913031    0.461670     0.004505
PT2324   PT        0.269775    0.039216    0.536800     0.004505
PT2325   PT        0.306400    0.037366    0.577122     0.004505
AU2326   AU        0.344705    0.037114    0.539188     0.007504
PT2327   PT        0.383740    0.038177    0.578498     0.004505
AU2328   AU        0.424288    0.038561    0.539192     0.007504
PT2329   PT        0.460733    0.000769    0.535673     0.004505
PT2330   PT        0.463177    0.037987    0.577224     0.004505
PT2331   PT        0.499482    0.036638    0.538108     0.004505
AU2332   AU        0.539156    0.038051    0.575080     0.007504
AU2333   AU        0.577088    0.038641    0.539802     0.007504
PT2334   PT        0.613914    0.038406    0.576748     0.004505
AU2335   AU        0.653699    0.037801    0.538121     0.007504
PT2336   PT        0.192035    0.113317    0.536411     0.004505
PT2337   PT        0.231640    0.075618    0.533708     0.004505
AU2338   AU        0.231068    0.112074    0.575650     0.007504
PT2339   PT        0.268182    0.074434    0.575033     0.004505
AU2340   AU        0.268022    0.111874    0.539511     0.007504
AU2341   AU        0.308550    0.072920    0.538282     0.007504
PT2342   PT        0.307552    0.110198    0.578535     0.004505
PT2343   PT        0.346080    0.072496    0.579065     0.004505
AU2344   AU        0.344886    0.110093    0.539265     0.007504
AU2345   AU        0.383337    0.073544    0.540490     0.007504
PT2346   PT        0.382904    0.111136    0.579107     0.004505
AU2347   AU        0.423635    0.073580    0.576752     0.007504
PT2348   PT        0.420727    0.111225    0.538950     0.004505
PT2349   PT        0.461720    0.072644    0.538439     0.004505
AU2350   AU        0.462828    0.109569    0.578941     0.007504
AU2351   AU        0.501130    0.073079    0.577458     0.007504
PT2352   PT        0.500374    0.110968    0.540862     0.004505
AU2353   AU        0.537847    0.075028    0.539898     0.007504
PT2354   PT        0.540976    0.110776    0.578899     0.004505
PT2355   PT        0.578061    0.074729    0.576623     0.004505
AU2356   AU        0.577803    0.111737    0.539356     0.007504
PT2357   PT        0.617611    0.074088    0.537859     0.004505
AU2358   AU        0.615736    0.111304    0.578393     0.007504
AU2359   AU        0.654935    0.075330    0.575111     0.007504
PT2360   PT        0.654819    0.111225    0.538482     0.004505
AU2361   AU        0.694442    0.075034    0.535928     0.007504
PT2362   PT        0.693214    0.111244    0.574315     0.004505
PT2363   PT        0.732760    0.112553    0.535165     0.004505
PT2364   PT        0.115905    0.189117    0.536045     0.004505
PT2365   PT        0.152623    0.148375    0.535332     0.004505
PT2366   PT        0.154051    0.187920    0.575186     0.004505
AU2367   AU        0.190177    0.151645    0.576221     0.007504
PT2368   PT        0.189809    0.186158    0.538083     0.004505
AU2369   AU        0.229526    0.148664    0.537440     0.007504
PT2370   PT        0.229836    0.186639    0.575433     0.004505
PT2371   PT        0.268672    0.150463    0.577384     0.004505
AU2372   AU        0.265054    0.186442    0.537305     0.007504
PT2373   PT        0.306377    0.150126    0.541977     0.004505
PT2374   PT        0.309478    0.186143    0.579468     0.004505
AU2375   AU        0.344238    0.149080    0.579245     0.007504
PT2376   PT        0.345988    0.186573    0.541822     0.004505
PT2377   PT        0.385324    0.146946    0.541055     0.004505
AU2378   AU        0.383510    0.185880    0.580683     0.007504
PT2379   PT        0.422591    0.149243    0.580039     0.004505
AU2380   AU        0.424363    0.186558    0.539245     0.007504
PT2381   PT        0.461572    0.148250    0.542001     0.004505
PT2382   PT        0.460926    0.186849    0.578642     0.004505
AU2383   AU        0.500090    0.148816    0.580054     0.007504
PT2384   PT        0.502959    0.186790    0.541340     0.004505
PT2385   PT        0.540023    0.150164    0.539841     0.004505
AU2386   AU        0.541743    0.189106    0.578214     0.007504
AU2387   AU        0.576343    0.148606    0.578375     0.007504
AU2388   AU        0.578796    0.186715    0.540021     0.007504
PT2389   PT        0.618592    0.147511    0.539947     0.004505
AU2390   AU        0.617613    0.186039    0.579418     0.007504
PT2391   PT        0.656113    0.149933    0.579106     0.004505
AU2392   AU        0.655762    0.187656    0.540438     0.007504
AU2393   AU        0.694885    0.149808    0.539598     0.007504
AU2394   AU        0.694776    0.188111    0.577648     0.007504
AU2395   AU        0.733670    0.149359    0.576636     0.007504
PT2396   PT        0.733976    0.187263    0.537621     0.004505
PT2397   PT        0.770476    0.150972    0.535131     0.004505
PT2398   PT        0.770231    0.188103    0.576383     0.004505
PT2399   PT        0.808987    0.189235    0.536908     0.004505
PT2400   PT        0.040853    0.263628    0.540195     0.004505
AU2401   AU        0.077441    0.228050    0.538229     0.007504
PT2402   PT        0.079570    0.264911    0.577460     0.004505
PT2403   PT        0.115745    0.225220    0.577356     0.004505
PT2404   PT        0.115254    0.266142    0.541236     0.004505
AU2405   AU        0.153528    0.226601    0.537331     0.007504
AU2406   AU        0.152442    0.261685    0.576605     0.007504
AU2407   AU        0.190443    0.224088    0.575366     0.007504
PT2408   PT        0.190103    0.264495    0.537885     0.004505
PT2409   PT        0.227241    0.225714    0.535651     0.004505
PT2410   PT        0.228806    0.263548    0.572784     0.004505
AU2411   AU        0.270586    0.223283    0.578229     0.007504
AU2412   AU        0.266845    0.266631    0.535316     0.007504
AU2413   AU        0.310050    0.223470    0.542475     0.007504
AU2414   AU        0.310284    0.261537    0.580725     0.007504
PT2415   PT        0.346607    0.224228    0.580262     0.004505
PT2416   PT        0.347774    0.261196    0.545318     0.004505
PT2417   PT        0.384009    0.223881    0.542041     0.004505
AU2418   AU        0.386334    0.262708    0.580239     0.007504
PT2419   PT        0.423921    0.224586    0.580310     0.004505
AU2420   AU        0.423657    0.261926    0.541343     0.007504
AU2421   AU        0.459509    0.224017    0.540804     0.007504
AU2422   AU        0.463064    0.263266    0.579209     0.007504
PT2423   PT        0.500783    0.225838    0.577659     0.004505
PT2424   PT        0.505452    0.264181    0.540255     0.004505
AU2425   AU        0.540536    0.226558    0.537644     0.007504
AU2426   AU        0.541796    0.265459    0.578453     0.007504
AU2427   AU        0.579482    0.227494    0.579781     0.007504
AU2428   AU        0.578873    0.264372    0.540132     0.007504
PT2429   PT        0.616361    0.224528    0.541806     0.004505
AU2430   AU        0.617195    0.264362    0.579287     0.007504
AU2431   AU        0.657716    0.225440    0.577423     0.007504
AU2432   AU        0.654633    0.263633    0.539068     0.007504
AU2433   AU        0.695545    0.224952    0.540252     0.007504
PT2434   PT        0.694645    0.262966    0.577831     0.004505
PT2435   PT        0.733665    0.226511    0.576959     0.004505
AU2436   AU        0.733735    0.262850    0.539940     0.007504
AU2437   AU        0.771152    0.226146    0.537760     0.007504
PT2438   PT        0.771546    0.261874    0.576721     0.004505
PT2439   PT        0.808966    0.226314    0.576212     0.004505
AU2440   AU        0.808674    0.267432    0.536997     0.007504
PT2441   PT        0.845417    0.229247    0.537844     0.004505
AU2442   AU        0.845851    0.265916    0.575141     0.007504
PT2443   PT        0.883257    0.266078    0.540089     0.004505
AU2444   AU        0.041413    0.302553    0.576009     0.007504
AU2445   AU        0.041102    0.341117    0.540727     0.007504
PT2446   PT        0.076485    0.302613    0.538193     0.004505
AU2447   AU        0.078139    0.341880    0.576019     0.007504
PT2448   PT        0.113624    0.304480    0.576196     0.004505
AU2449   AU        0.114306    0.341477    0.537997     0.007504
AU2450   AU        0.154007    0.303540    0.539802     0.007504
AU2451   AU        0.151827    0.339783    0.577084     0.007504
PT2452   PT        0.191952    0.302476    0.577462     0.004505
AU2453   AU        0.191556    0.341177    0.536915     0.007504
AU2454   AU        0.228035    0.303276    0.537914     0.007504
AU2455   AU        0.229056    0.342678    0.576539     0.007504
PT2456   PT        0.264749    0.305546    0.575132     0.004505
PT2457   PT        0.264081    0.343819    0.537974     0.004505
AU2458   AU        0.309378    0.296015    0.541911     0.007504
AU2459   AU        0.299838    0.346463    0.576388     0.007504
PT2460   PT        0.349534    0.298314    0.579044     0.004505
AU2461   AU        0.351968    0.341575    0.545172     0.007504
AU2462   AU        0.388575    0.300308    0.541455     0.007504
AU2463   AU        0.387980    0.339125    0.580423     0.007504
AU2464   AU        0.423741    0.299442    0.579340     0.007504
AU2465   AU        0.425841    0.341468    0.540221     0.007504
AU2466   AU        0.460596    0.302084    0.541023     0.007504
AU2467   AU        0.463015    0.341068    0.577737     0.007504
AU2468   AU        0.501489    0.302485    0.578598     0.007504
AU2469   AU        0.500179    0.341512    0.540338     0.007504
AU2470   AU        0.538435    0.304710    0.537279     0.007504
AU2471   AU        0.538552    0.342142    0.577724     0.007504
AU2472   AU        0.578660    0.302801    0.576115     0.007504
AU2473   AU        0.576426    0.342314    0.539186     0.007504
PT2474   PT        0.615818    0.305784    0.538713     0.004505
AU2475   AU        0.617413    0.341059    0.579958     0.007504
AU2476   AU        0.653895    0.303899    0.576775     0.007504
AU2477   AU        0.652111    0.344479    0.539384     0.007504
PT2478   PT        0.694771    0.300371    0.538711     0.004505
PT2479   PT        0.692133    0.340796    0.575220     0.004505
AU2480   AU        0.732428    0.300894    0.577922     0.007504
AU2481   AU        0.733690    0.341036    0.539165     0.007504
AU2482   AU        0.770700    0.301767    0.540669     0.007504
PT2483   PT        0.771758    0.339973    0.576143     0.004505
PT2484   PT        0.808619    0.303965    0.576840     0.004505
PT2485   PT        0.809341    0.342063    0.537264     0.004505
AU2486   AU        0.845914    0.304174    0.538177     0.007504
PT2487   PT        0.846139    0.340758    0.576286     0.004505
AU2488   AU        0.881529    0.304793    0.576882     0.007504
AU2489   AU        0.882006    0.341525    0.536975     0.007504
PT2490   PT        0.040438    0.381458    0.579046     0.004505
AU2491   AU        0.038739    0.420056    0.535958     0.007504
AU2492   AU        0.077362    0.378526    0.539353     0.007504
AU2493   AU        0.077438    0.419845    0.578629     0.007504
AU2494   AU        0.114339    0.381287    0.580111     0.007504
AU2495   AU        0.112807    0.417844    0.538693     0.007504
PT2496   PT        0.151067    0.380112    0.538470     0.004505
AU2497   AU        0.149974    0.419387    0.577123     0.007504
PT2498   PT        0.190297    0.378474    0.575197     0.004505
AU2499   AU        0.189701    0.418482    0.538469     0.007504
AU2500   AU        0.227389    0.381671    0.537781     0.007504
AU2501   AU        0.227662    0.419662    0.578943     0.007504
AU2502   AU        0.264929    0.382875    0.578653     0.007504
AU2503   AU        0.265502    0.421717    0.537381     0.007504
AU2504   AU        0.301559    0.385186    0.539305     0.007504
AU2505   AU        0.304737    0.423112    0.577289     0.007504
AU2506   AU        0.338908    0.384805    0.575995     0.007504
AU2507   AU        0.343516    0.421165    0.537282     0.007504
PT2508   PT        0.389969    0.378996    0.542246     0.004505
AU2509   AU        0.381553    0.419866    0.577419     0.007504
AU2510   AU        0.426120    0.380598    0.577228     0.007504
AU2511   AU        0.424499    0.416661    0.540980     0.007504
AU2512   AU        0.461615    0.379771    0.539157     0.007504
AU2513   AU        0.460549    0.419779    0.578228     0.007504
AU2514   AU        0.502208    0.380384    0.577501     0.007504
AU2515   AU        0.501167    0.417752    0.538956     0.007504
AU2516   AU        0.539909    0.380431    0.537832     0.007504
AU2517   AU        0.538115    0.420119    0.578895     0.007504
PT2518   PT        0.576969    0.379907    0.577513     0.004505
AU2519   AU        0.575774    0.418870    0.537045     0.007504
AU2520   AU        0.614663    0.380462    0.540051     0.007504
AU2521   AU        0.617395    0.419280    0.577991     0.007504
AU2522   AU        0.654609    0.378400    0.579311     0.007504
AU2523   AU        0.656480    0.420014    0.539260     0.007504
PT2524   PT        0.693986    0.379901    0.537167     0.004505
AU2525   AU        0.692326    0.420084    0.578766     0.007504
AU2526   AU        0.731566    0.380702    0.576968     0.007504
AU2527   AU        0.730621    0.419701    0.539158     0.007504
PT2528   PT        0.771761    0.380857    0.537161     0.004505
PT2529   PT        0.770100    0.417679    0.576065     0.004505
AU2530   AU        0.810306    0.380229    0.576788     0.007504
PT2531   PT        0.810316    0.418291    0.539708     0.004505
PT2532   PT        0.846564    0.378646    0.536782     0.004505
AU2533   AU        0.846047    0.420487    0.578959     0.007504
PT2534   PT        0.882338    0.379190    0.577664     0.004505
PT2535   PT        0.883264    0.419670    0.539648     0.004505
AU2536   AU        0.001298    0.456704    0.535311     0.007504
PT2537   PT        0.039212    0.455623    0.576626     0.004505
PT2538   PT        0.039067    0.493687    0.535387     0.004505
PT2539   PT        0.076411    0.457775    0.538732     0.004505
PT2540   PT        0.075820    0.493731    0.577477     0.004505
PT2541   PT        0.113256    0.457198    0.579353     0.004505
AU2542   AU        0.112703    0.498387    0.538074     0.007504
PT2543   PT        0.149474    0.457848    0.538129     0.004505
PT2544   PT        0.150184    0.494702    0.575949     0.004505
PT2545   PT        0.188577    0.458848    0.579326     0.004505
AU2546   AU        0.187913    0.497087    0.538894     0.007504
AU2547   AU        0.226969    0.458171    0.538675     0.007504
AU2548   AU        0.229017    0.494204    0.575693     0.007504
AU2549   AU        0.266890    0.459473    0.578463     0.007504
AU2550   AU        0.265317    0.494567    0.538311     0.007504
AU2551   AU        0.304766    0.459538    0.538557     0.007504
AU2552   AU        0.303632    0.494327    0.578567     0.007504
AU2553   AU        0.344047    0.457590    0.578518     0.007504
AU2554   AU        0.344375    0.496202    0.539292     0.007504
AU2555   AU        0.383227    0.458323    0.539029     0.007504
AU2556   AU        0.383077    0.498151    0.576836     0.007504
AU2557   AU        0.423946    0.458266    0.576815     0.007504
AU2558   AU        0.421558    0.495097    0.537791     0.007504
AU2559   AU        0.462662    0.456083    0.540521     0.007504
AU2560   AU        0.462529    0.494763    0.578206     0.007504
AU2561   AU        0.497970    0.456103    0.578086     0.007504
AU2562   AU        0.500580    0.494716    0.538798     0.007504
AU2563   AU        0.538607    0.459774    0.538899     0.007504
AU2564   AU        0.538872    0.495469    0.576776     0.007504
AU2565   AU        0.576570    0.458799    0.577741     0.007504
AU2566   AU        0.578027    0.496813    0.539400     0.007504
AU2567   AU        0.616450    0.459144    0.540116     0.007504
AU2568   AU        0.614390    0.495269    0.580422     0.007504
PT2569   PT        0.655001    0.460099    0.578556     0.004505
PT2570   PT        0.654858    0.497032    0.535483     0.004505
AU2571   AU        0.692507    0.460826    0.537791     0.007504
AU2572   AU        0.695744    0.496641    0.577846     0.007504
AU2573   AU        0.730082    0.457615    0.577688     0.007504
AU2574   AU        0.732474    0.497445    0.539495     0.007504
AU2575   AU        0.768781    0.457016    0.537372     0.007504
PT2576   PT        0.770184    0.494455    0.576215     0.004505
PT2577   PT        0.807863    0.456870    0.577225     0.004505
AU2578   AU        0.806523    0.496174    0.540036     0.007504
AU2579   AU        0.846041    0.458146    0.538596     0.007504
AU2580   AU        0.845289    0.495529    0.577311     0.007504
PT2581   PT        0.883385    0.457864    0.578848     0.004505
AU2582   AU        0.883556    0.496837    0.538084     0.007504
AU2583   AU        0.920205    0.456198    0.535272     0.007504
AU2584   AU        0.039595    0.536616    0.580415     0.007504
PT2585   PT        0.039713    0.573423    0.539464     0.004505
AU2586   AU        0.075650    0.534040    0.538970     0.007504
AU2587   AU        0.078079    0.573880    0.578440     0.007504
PT2588   PT        0.113962    0.534327    0.576842     0.004505
PT2589   PT        0.112035    0.573485    0.537187     0.004505
PT2590   PT        0.151176    0.533893    0.536461     0.004505
AU2591   AU        0.151138    0.572390    0.577439     0.007504
AU2592   AU        0.190577    0.534694    0.576595     0.007504
AU2593   AU        0.191555    0.572644    0.538720     0.007504
PT2594   PT        0.227918    0.532440    0.538853     0.004505
AU2595   AU        0.228952    0.574803    0.578398     0.007504
AU2596   AU        0.267936    0.534050    0.577260     0.007504
PT2597   PT        0.268684    0.571673    0.538713     0.004505
AU2598   AU        0.306316    0.533356    0.538472     0.007504
AU2599   AU        0.305216    0.574984    0.581053     0.007504
AU2600   AU        0.344022    0.535522    0.577548     0.007504
AU2601   AU        0.345149    0.573282    0.538879     0.007504
AU2602   AU        0.384956    0.534002    0.536730     0.007504
PT2603   PT        0.384557    0.572793    0.577013     0.004505
AU2604   AU        0.421421    0.533788    0.577695     0.007504
AU2605   AU        0.421207    0.573015    0.538229     0.007504
AU2606   AU        0.459522    0.534870    0.539275     0.007504
AU2607   AU        0.461822    0.573937    0.577845     0.007504
AU2608   AU        0.499871    0.534791    0.576022     0.007504
AU2609   AU        0.498547    0.573184    0.539392     0.007504
AU2610   AU        0.537821    0.533894    0.537497     0.007504
AU2611   AU        0.537255    0.572525    0.577587     0.007504
PT2612   PT        0.576666    0.535989    0.580120     0.004505
AU2613   AU        0.576060    0.573063    0.540048     0.007504
AU2614   AU        0.614352    0.534272    0.540022     0.007504
AU2615   AU        0.613411    0.573647    0.577022     0.007504
AU2616   AU        0.653863    0.533695    0.576750     0.007504
AU2617   AU        0.652803    0.573941    0.538169     0.007504
AU2618   AU        0.692776    0.535820    0.539060     0.007504
PT2619   PT        0.692573    0.573708    0.578051     0.004505
AU2620   AU        0.732062    0.535335    0.576157     0.007504
AU2621   AU        0.731587    0.573633    0.539286     0.007504
AU2622   AU        0.769914    0.536095    0.538361     0.007504
AU2623   AU        0.770399    0.573248    0.580077     0.007504
PT2624   PT        0.808779    0.537325    0.577753     0.004505
PT2625   PT        0.808147    0.575230    0.538959     0.004505
PT2626   PT        0.845312    0.535738    0.539041     0.004505
PT2627   PT        0.845682    0.574559    0.576734     0.004505
PT2628   PT        0.880197    0.534794    0.576877     0.004505
PT2629   PT        0.879845    0.572980    0.536532     0.004505
PT2630   PT        0.040074    0.612904    0.578811     0.004505
AU2631   AU        0.039692    0.649813    0.540180     0.007504
PT2632   PT        0.077049    0.612989    0.540084     0.004505
PT2633   PT        0.076747    0.650679    0.576682     0.004505
AU2634   AU        0.114898    0.613957    0.576100     0.007504
PT2635   PT        0.115446    0.651681    0.537963     0.004505
AU2636   AU        0.150684    0.611019    0.538348     0.007504
PT2637   PT        0.153884    0.651622    0.576546     0.004505
AU2638   AU        0.191188    0.612882    0.575540     0.007504
AU2639   AU        0.187491    0.651623    0.538150     0.007504
AU2640   AU        0.228245    0.611780    0.538119     0.007504
PT2641   PT        0.229391    0.651117    0.577465     0.004505
AU2642   AU        0.266817    0.613007    0.577285     0.007504
AU2643   AU        0.267179    0.652536    0.537586     0.007504
AU2644   AU        0.305576    0.610716    0.536970     0.007504
AU2645   AU        0.306101    0.648857    0.576742     0.007504
PT2646   PT        0.345205    0.614474    0.576308     0.004505
AU2647   AU        0.346059    0.651183    0.536006     0.007504
PT2648   PT        0.383697    0.614706    0.538350     0.004505
PT2649   PT        0.385450    0.649287    0.578152     0.004505
PT2650   PT        0.424372    0.609670    0.577814     0.004505
PT2651   PT        0.424497    0.649800    0.539581     0.004505
AU2652   AU        0.461014    0.612968    0.539543     0.007504
PT2653   PT        0.460863    0.649072    0.577776     0.004505
PT2654   PT        0.497964    0.612525    0.575665     0.004505
AU2655   AU        0.500937    0.648381    0.538652     0.007504
AU2656   AU        0.537921    0.610228    0.538528     0.007504
AU2657   AU        0.538550    0.652111    0.576142     0.007504
AU2658   AU        0.575808    0.610878    0.577213     0.007504
AU2659   AU        0.577146    0.649901    0.538440     0.007504
AU2660   AU        0.614143    0.610717    0.540411     0.007504
PT2661   PT        0.614136    0.649422    0.577675     0.004505
AU2662   AU        0.653884    0.611561    0.579678     0.007504
AU2663   AU        0.655119    0.650515    0.539761     0.007504
PT2664   PT        0.692517    0.612121    0.538674     0.004505
AU2665   AU        0.694111    0.649658    0.575645     0.007504
AU2666   AU        0.732123    0.611393    0.577285     0.007504
PT2667   PT        0.731364    0.653660    0.536138     0.004505
PT2668   PT        0.769902    0.609892    0.539772     0.004505
PT2669   PT        0.769258    0.649669    0.576262     0.004505
AU2670   AU        0.807077    0.612097    0.579028     0.007504
PT2671   PT        0.806029    0.649164    0.538349     0.004505
AU2672   AU        0.843124    0.612287    0.537444     0.007504
PT2673   PT        0.844195    0.651573    0.575275     0.004505
PT2674   PT        0.881981    0.652335    0.616914     0.004505
PT2675   PT        0.883995    0.651927    0.535836     0.004505
PT2676   PT        0.077837    0.688423    0.536860     0.004505
PT2677   PT        0.116363    0.687595    0.576848     0.004505
PT2678   PT        0.115414    0.726854    0.536509     0.004505
AU2679   AU        0.153211    0.691968    0.538839     0.007504
PT2680   PT        0.151134    0.728312    0.574890     0.004505
AU2681   AU        0.190967    0.691233    0.578149     0.007504
AU2682   AU        0.190191    0.726934    0.540156     0.007504
AU2683   AU        0.228030    0.690615    0.539034     0.007504
PT2684   PT        0.229337    0.727805    0.577494     0.004505
AU2685   AU        0.266949    0.688480    0.577885     0.007504
AU2686   AU        0.266338    0.727098    0.538514     0.007504
AU2687   AU        0.308678    0.688603    0.538332     0.007504
PT2688   PT        0.302460    0.726379    0.576945     0.004505
AU2689   AU        0.348347    0.688459    0.575740     0.007504
PT2690   PT        0.346137    0.728038    0.540308     0.004505
AU2691   AU        0.385465    0.686317    0.538809     0.007504
AU2692   AU        0.385355    0.728126    0.578184     0.007504
PT2693   PT        0.423207    0.687810    0.577061     0.004505
AU2694   AU        0.420681    0.727800    0.535885     0.007504
AU2695   AU        0.460138    0.687896    0.537816     0.007504
AU2696   AU        0.461647    0.727635    0.578769     0.007504
AU2697   AU        0.497236    0.686505    0.577200     0.007504
AU2698   AU        0.498728    0.727730    0.537290     0.007504
PT2699   PT        0.539398    0.689233    0.538861     0.004505
PT2700   PT        0.535224    0.725550    0.577261     0.004505
AU2701   AU        0.577998    0.688121    0.576349     0.007504
AU2702   AU        0.578535    0.727977    0.539854     0.007504
AU2703   AU        0.614414    0.688562    0.538390     0.007504
PT2704   PT        0.614913    0.728469    0.577531     0.004505
AU2705   AU        0.654855    0.687553    0.579433     0.007504
PT2706   PT        0.650673    0.724160    0.539188     0.004505
AU2707   AU        0.690657    0.689221    0.537697     0.007504
AU2708   AU        0.692260    0.725420    0.578582     0.007504
PT2709   PT        0.730351    0.688716    0.576254     0.004505
PT2710   PT        0.728351    0.727630    0.539886     0.004505
AU2711   AU        0.768564    0.688790    0.538884     0.007504
PT2712   PT        0.765859    0.725753    0.576815     0.004505
PT2713   PT        0.804991    0.690584    0.575933     0.004505
PT2714   PT        0.805218    0.726064    0.537584     0.004505
PT2715   PT        0.844576    0.687587    0.537503     0.004505
AU2716   AU        0.153223    0.764580    0.537219     0.007504
AU2717   AU        0.190942    0.765234    0.577572     0.007504
PT2718   PT        0.193260    0.803647    0.538338     0.004505
AU2719   AU        0.230160    0.765648    0.539125     0.007504
AU2720   AU        0.230785    0.802895    0.574583     0.007504
AU2721   AU        0.268377    0.766464    0.574686     0.007504
PT2722   PT        0.267831    0.803058    0.536976     0.004505
PT2723   PT        0.305030    0.766146    0.538245     0.004505
PT2724   PT        0.306506    0.803629    0.575969     0.004505
AU2725   AU        0.345773    0.766287    0.577243     0.007504
AU2726   AU        0.343869    0.804590    0.539994     0.007504
AU2727   AU        0.384342    0.766633    0.539384     0.007504
PT2728   PT        0.385166    0.805333    0.579396     0.004505
PT2729   PT        0.422683    0.765855    0.577420     0.004505
PT2730   PT        0.421398    0.804941    0.540798     0.004505
AU2731   AU        0.460747    0.768560    0.539969     0.007504
AU2732   AU        0.462741    0.805615    0.577121     0.007504
PT2733   PT        0.501020    0.765679    0.579848     0.004505
PT2734   PT        0.500760    0.806502    0.540790     0.004505
PT2735   PT        0.537172    0.766152    0.540372     0.004505
PT2736   PT        0.538299    0.803421    0.576987     0.004505
PT2737   PT        0.576586    0.765403    0.579058     0.004505
PT2738   PT        0.576093    0.804449    0.537752     0.004505
AU2739   AU        0.613465    0.765444    0.539442     0.007504
AU2740   AU        0.612249    0.805220    0.576282     0.007504
AU2741   AU        0.651513    0.765561    0.575877     0.007504
PT2742   PT        0.652535    0.803461    0.537003     0.004505
PT2743   PT        0.691957    0.765165    0.538860     0.004505
AU2744   AU        0.690710    0.802643    0.575592     0.007504
PT2745   PT        0.729615    0.764382    0.576728     0.004505
PT2746   PT        0.728714    0.801672    0.537817     0.004505
PT2747   PT        0.765871    0.764523    0.538357     0.004505
AU2748   AU        0.229430    0.839016    0.537340     0.007504
AU2749   AU        0.267551    0.839647    0.574666     0.007504
PT2750   PT        0.268319    0.878153    0.539133     0.004505
AU2751   AU        0.305440    0.841138    0.537940     0.007504
PT2752   PT        0.306652    0.878431    0.576240     0.004505
PT2753   PT        0.344610    0.840360    0.577501     0.004505
PT2754   PT        0.344652    0.875977    0.538743     0.004505
AU2755   AU        0.383864    0.841526    0.540465     0.007504
PT2756   PT        0.381946    0.876177    0.578533     0.004505
PT2757   PT        0.422258    0.841664    0.579295     0.004505
PT2758   PT        0.422817    0.877935    0.539416     0.004505
AU2759   AU        0.461941    0.842929    0.539480     0.007504
PT2760   PT        0.461701    0.878526    0.578027     0.004505
AU2761   AU        0.499022    0.842484    0.579550     0.007504
AU2762   AU        0.500210    0.876869    0.537882     0.007504
PT2763   PT        0.538093    0.841991    0.538526     0.004505
PT2764   PT        0.538591    0.878001    0.579824     0.004505
AU2765   AU        0.576430    0.842292    0.574330     0.007504
PT2766   PT        0.577136    0.878772    0.536648     0.004505
AU2767   AU        0.614860    0.841487    0.536990     0.007504
PT2768   PT        0.613515    0.876942    0.575194     0.004505
AU2769   AU        0.651836    0.838717    0.575600     0.007504
PT2770   PT        0.652215    0.877157    0.538788     0.004505
PT2771   PT        0.689350    0.839522    0.537019     0.004505
PT2772   PT        0.462575    0.915439    0.537718     0.004505
PT2773   PT        0.345414    0.037180    0.616738     0.004505
PT2774   PT        0.384468    0.038475    0.653229     0.004505
PT2775   PT        0.420677    0.039291    0.617477     0.004505
AU2776   AU        0.460520    0.039087    0.654911     0.007504
PT2777   PT        0.500673    0.036380    0.618751     0.004505
PT2778   PT        0.540243    0.038972    0.653306     0.004505
PT2779   PT        0.614264    0.037172    0.652878     0.004505
PT2780   PT        0.194883    0.114855    0.615521     0.004505
PT2781   PT        0.231732    0.114620    0.653440     0.004505
PT2782   PT        0.268647    0.075853    0.654748     0.004505
AU2783   AU        0.268016    0.112333    0.615271     0.007504
PT2784   PT        0.304888    0.073678    0.615821     0.004505
PT2785   PT        0.305662    0.111253    0.652970     0.004505
PT2786   PT        0.346633    0.074541    0.653545     0.004505
PT2787   PT        0.343049    0.111205    0.616180     0.004505
PT2788   PT        0.382861    0.074318    0.616126     0.004505
AU2789   AU        0.381995    0.111082    0.655238     0.007504
AU2790   AU        0.422845    0.074166    0.654300     0.007504
PT2791   PT        0.422072    0.111298    0.619704     0.004505
PT2792   PT        0.461100    0.073318    0.616400     0.004505
PT2793   PT        0.460909    0.110027    0.655583     0.004505
PT2794   PT        0.500469    0.073995    0.654058     0.004505
PT2795   PT        0.499414    0.110007    0.617909     0.004505
PT2796   PT        0.539307    0.073893    0.615854     0.004505
PT2797   PT        0.539644    0.110034    0.653334     0.004505
AU2798   AU        0.578489    0.075106    0.655534     0.007504
AU2799   AU        0.577389    0.111659    0.616659     0.007504
PT2800   PT        0.615258    0.075770    0.616225     0.004505
AU2801   AU        0.617112    0.112476    0.654392     0.007504
PT2802   PT        0.653391    0.073266    0.655649     0.004505
PT2803   PT        0.653600    0.112274    0.617722     0.004505
PT2804   PT        0.690666    0.114040    0.654027     0.004505
AU2805   AU        0.728445    0.112484    0.617190     0.007504
PT2806   PT        0.116505    0.186486    0.615539     0.004505
AU2807   AU        0.156794    0.151990    0.614526     0.007504
AU2808   AU        0.154474    0.188724    0.654063     0.007504
AU2809   AU        0.193784    0.152401    0.652978     0.007504
PT2810   PT        0.193393    0.189563    0.614710     0.004505
PT2811   PT        0.232855    0.150800    0.615974     0.004505
PT2812   PT        0.229744    0.187621    0.655118     0.004505
PT2813   PT        0.270056    0.149271    0.654242     0.004505
PT2814   PT        0.268925    0.186964    0.616978     0.004505
AU2815   AU        0.307079    0.150176    0.617183     0.007504
AU2816   AU        0.307490    0.185028    0.653987     0.007504
PT2817   PT        0.347307    0.148551    0.655363     0.004505
AU2818   AU        0.343816    0.186701    0.617423     0.007504
PT2819   PT        0.382361    0.147220    0.617858     0.004505
PT2820   PT        0.384462    0.186008    0.657016     0.004505
PT2821   PT        0.424123    0.148369    0.658942     0.004505
PT2822   PT        0.422065    0.186265    0.617731     0.004505
AU2823   AU        0.461755    0.148620    0.618294     0.007504
AU2824   AU        0.462108    0.188252    0.654737     0.007504
PT2825   PT        0.499562    0.148846    0.656847     0.004505
AU2826   AU        0.501403    0.186113    0.617054     0.007504
AU2827   AU        0.539102    0.148978    0.618026     0.007504
AU2828   AU        0.538821    0.186613    0.654585     0.007504
AU2829   AU        0.578039    0.147474    0.654545     0.007504
AU2830   AU        0.578326    0.186729    0.617467     0.007504
AU2831   AU        0.614642    0.147838    0.616078     0.007504
AU2832   AU        0.617080    0.187615    0.653765     0.007504
PT2833   PT        0.654376    0.150167    0.652587     0.004505
AU2834   AU        0.654388    0.187956    0.616687     0.007504
PT2835   PT        0.692783    0.147754    0.614634     0.004505
PT2836   PT        0.692762    0.188991    0.657430     0.004505
PT2837   PT        0.728224    0.148738    0.654460     0.004505
PT2838   PT        0.730214    0.186935    0.618902     0.004505
PT2839   PT        0.766439    0.148327    0.617190     0.004505
PT2840   PT        0.767773    0.187726    0.656320     0.004505
AU2841   AU        0.805740    0.186002    0.615470     0.007504
PT2842   PT        0.078187    0.265687    0.652383     0.004505
PT2843   PT        0.117371    0.227278    0.652210     0.004505
PT2844   PT        0.116258    0.264920    0.613484     0.004505
PT2845   PT        0.152859    0.225538    0.614855     0.004505
AU2846   AU        0.152102    0.262221    0.654259     0.007504
AU2847   AU        0.191799    0.226069    0.654765     0.007504
PT2848   PT        0.189863    0.264989    0.615462     0.004505
PT2849   PT        0.231407    0.224856    0.616308     0.004505
AU2850   AU        0.229275    0.267895    0.656298     0.007504
PT2851   PT        0.267901    0.228202    0.656211     0.004505
PT2852   PT        0.268698    0.264499    0.617292     0.004505
AU2853   AU        0.307907    0.226244    0.616384     0.007504
AU2854   AU        0.306224    0.263522    0.656045     0.007504
AU2855   AU        0.344935    0.225838    0.655211     0.007504
AU2856   AU        0.346703    0.264044    0.617486     0.007504
AU2857   AU        0.384441    0.224268    0.617685     0.007504
AU2858   AU        0.382449    0.261843    0.657097     0.007504
AU2859   AU        0.422186    0.227018    0.655579     0.007504
PT2860   PT        0.425773    0.263191    0.618985     0.004505
AU2861   AU        0.464006    0.223897    0.616819     0.007504
AU2862   AU        0.463375    0.261835    0.655548     0.007504
PT2863   PT        0.499998    0.225412    0.655880     0.004505
AU2864   AU        0.501893    0.267129    0.616243     0.007504
PT2865   PT        0.540093    0.227161    0.615431     0.004505
PT2866   PT        0.537324    0.266408    0.656898     0.004505
PT2867   PT        0.578612    0.225103    0.656040     0.004505
PT2868   PT        0.578310    0.265588    0.618384     0.004505
PT2869   PT        0.618704    0.225229    0.617754     0.004505
AU2870   AU        0.616115    0.262610    0.655059     0.007504
AU2871   AU        0.654719    0.225600    0.655303     0.007504
PT2872   PT        0.657958    0.265857    0.616015     0.004505
AU2873   AU        0.692930    0.225334    0.617832     0.007504
PT2874   PT        0.694054    0.262862    0.653916     0.004505
AU2875   AU        0.731981    0.225844    0.654224     0.007504
PT2876   PT        0.733493    0.261520    0.616040     0.004505
PT2877   PT        0.769040    0.224849    0.616501     0.004505
AU2878   AU        0.770071    0.264724    0.654016     0.007504
PT2879   PT        0.804607    0.226659    0.654662     0.004505
PT2880   PT        0.806952    0.266335    0.615480     0.004505
PT2881   PT        0.885643    0.267688    0.613802     0.004505
PT2882   PT        0.039249    0.340850    0.616484     0.004505
AU2883   AU        0.076859    0.306322    0.615962     0.007504
PT2884   PT        0.077069    0.342739    0.654661     0.004505
PT2885   PT        0.115921    0.301988    0.653050     0.004505
AU2886   AU        0.115162    0.342297    0.617087     0.007504
AU2887   AU        0.152643    0.300881    0.616607     0.007504
AU2888   AU        0.152945    0.340527    0.657303     0.007504
AU2889   AU        0.190039    0.303655    0.654908     0.007504
PT2890   PT        0.187971    0.340956    0.614494     0.004505
AU2891   AU        0.229748    0.300838    0.614345     0.007504
PT2892   PT        0.230257    0.341031    0.655905     0.004505
PT2893   PT        0.269918    0.301737    0.657235     0.004505
AU2894   AU        0.262814    0.343783    0.614716     0.007504
AU2895   AU        0.308853    0.300673    0.617214     0.007504
PT2896   PT        0.311401    0.337190    0.657135     0.004505
AU2897   AU        0.347600    0.300435    0.656108     0.007504
AU2898   AU        0.350740    0.339031    0.618498     0.007504
PT2899   PT        0.388314    0.301075    0.618837     0.004505
AU2900   AU        0.387032    0.339224    0.655407     0.007504
AU2901   AU        0.423087    0.302727    0.658270     0.007504
AU2902   AU        0.426513    0.339996    0.618647     0.007504
PT2903   PT        0.464505    0.302398    0.617888     0.004505
AU2904   AU        0.463128    0.340132    0.655770     0.007504
AU2905   AU        0.501511    0.302323    0.656244     0.007504
AU2906   AU        0.501716    0.342933    0.616974     0.007504
PT2907   PT        0.539108    0.305976    0.615865     0.004505
AU2908   AU        0.538592    0.343027    0.655180     0.007504
AU2909   AU        0.576269    0.302496    0.655760     0.007504
AU2910   AU        0.577933    0.341233    0.618608     0.007504
PT2911   PT        0.618248    0.301850    0.616368     0.004505
AU2912   AU        0.614407    0.341082    0.654537     0.007504
AU2913   AU        0.654656    0.304405    0.654167     0.007504
AU2914   AU        0.653445    0.341387    0.617955     0.007504
AU2915   AU        0.694305    0.301655    0.615942     0.007504
PT2916   PT        0.693527    0.343765    0.656443     0.004505
AU2917   AU        0.731813    0.303347    0.654829     0.007504
AU2918   AU        0.730161    0.340789    0.614235     0.007504
AU2919   AU        0.770572    0.304700    0.615935     0.007504
PT2920   PT        0.768919    0.342132    0.655486     0.004505
PT2921   PT        0.807197    0.304482    0.654585     0.004505
AU2922   AU        0.807338    0.343254    0.615833     0.007504
PT2923   PT        0.845287    0.304292    0.615453     0.004505
AU2924   AU        0.844313    0.343576    0.653170     0.007504
PT2925   PT        0.883621    0.342281    0.615172     0.004505
PT2926   PT        0.041560    0.379215    0.654713     0.004505
PT2927   PT        0.041221    0.419890    0.616839     0.004505
PT2928   PT        0.077893    0.379949    0.615482     0.004505
AU2929   AU        0.077178    0.418233    0.653865     0.007504
AU2930   AU        0.114955    0.381218    0.655715     0.007504
AU2931   AU        0.114624    0.418930    0.618046     0.007504
AU2932   AU        0.153282    0.381143    0.618440     0.007504
PT2933   PT        0.152717    0.419817    0.656633     0.004505
PT2934   PT        0.191419    0.376686    0.658789     0.004505
PT2935   PT        0.187840    0.420993    0.614200     0.004505
AU2936   AU        0.225008    0.379429    0.614981     0.007504
PT2937   PT        0.225916    0.420442    0.651640     0.004505
AU2938   AU        0.261436    0.382894    0.651821     0.007504
PT2939   PT        0.266865    0.422334    0.615334     0.004505
AU2940   AU        0.303254    0.384684    0.612870     0.007504
AU2941   AU        0.303659    0.421930    0.653567     0.007504
AU2942   AU        0.348184    0.378069    0.656904     0.007504
PT2943   PT        0.341389    0.423263    0.616869     0.004505
PT2944   PT        0.389831    0.378610    0.615953     0.004505
AU2945   AU        0.384457    0.420484    0.655649     0.007504
PT2946   PT        0.420950    0.381137    0.657138     0.004505
AU2947   AU        0.420630    0.419430    0.615314     0.007504
AU2948   AU        0.463033    0.379885    0.616322     0.007504
AU2949   AU        0.460995    0.418702    0.651992     0.007504
PT2950   PT        0.501942    0.379810    0.654540     0.004505
AU2951   AU        0.501039    0.419861    0.618773     0.007504
AU2952   AU        0.538093    0.381349    0.615285     0.007504
AU2953   AU        0.537550    0.417485    0.654498     0.007504
AU2954   AU        0.577058    0.381161    0.654606     0.007504
AU2955   AU        0.578290    0.417913    0.616063     0.007504
AU2956   AU        0.616848    0.380274    0.615412     0.007504
PT2957   PT        0.617960    0.420134    0.657277     0.004505
AU2958   AU        0.653193    0.381808    0.655822     0.007504
AU2959   AU        0.654877    0.419019    0.617784     0.007504
AU2960   AU        0.693480    0.379724    0.617413     0.007504
PT2961   PT        0.693818    0.420568    0.657738     0.004505
AU2962   AU        0.731522    0.381973    0.657308     0.007504
PT2963   PT        0.732664    0.418591    0.614726     0.004505
AU2964   AU        0.767627    0.378739    0.617597     0.007504
PT2965   PT        0.769162    0.420373    0.655066     0.004505
AU2966   AU        0.808106    0.379905    0.655183     0.007504
PT2967   PT        0.810156    0.417752    0.617148     0.004505
AU2968   AU        0.846456    0.379357    0.617297     0.007504
AU2969   AU        0.845681    0.417014    0.654611     0.007504
AU2970   AU        0.883331    0.380623    0.654158     0.007504
AU2971   AU        0.881779    0.419742    0.616733     0.007504
AU2972   AU        0.040249    0.455621    0.655293     0.007504
PT2973   PT        0.041160    0.496672    0.618150     0.004505
AU2974   AU        0.076984    0.458533    0.617006     0.007504
AU2975   AU        0.077488    0.498281    0.653900     0.007504
AU2976   AU        0.113282    0.457405    0.656287     0.007504
PT2977   PT        0.113659    0.496023    0.616491     0.004505
PT2978   PT        0.151061    0.458581    0.616670     0.004505
PT2979   PT        0.151966    0.495745    0.652640     0.004505
AU2980   AU        0.189251    0.457314    0.654678     0.007504
AU2981   AU        0.190612    0.497417    0.616852     0.007504
AU2982   AU        0.229393    0.459557    0.614434     0.007504
AU2983   AU        0.226431    0.495305    0.655933     0.007504
AU2984   AU        0.263935    0.459460    0.653453     0.007504
AU2985   AU        0.265375    0.495750    0.616379     0.007504
PT2986   PT        0.304084    0.458143    0.618076     0.004505
AU2987   AU        0.304950    0.494098    0.654364     0.007504
AU2988   AU        0.343387    0.459031    0.654983     0.007504
AU2989   AU        0.345611    0.496397    0.615457     0.007504
AU2990   AU        0.383965    0.457254    0.616175     0.007504
AU2991   AU        0.383689    0.496240    0.652652     0.007504
AU2992   AU        0.423201    0.457906    0.655090     0.007504
AU2993   AU        0.424065    0.494549    0.615062     0.007504
AU2994   AU        0.461254    0.456869    0.616745     0.007504
AU2995   AU        0.461577    0.494618    0.657710     0.007504
AU2996   AU        0.501448    0.459595    0.655798     0.007504
AU2997   AU        0.498451    0.497189    0.616610     0.007504
AU2998   AU        0.539108    0.457549    0.617317     0.007504
AU2999   AU        0.538476    0.498183    0.654925     0.007504
AU3000   AU        0.578940    0.455999    0.654541     0.007504
AU3001   AU        0.578256    0.496207    0.617680     0.007504
PT3002   PT        0.618724    0.457233    0.617585     0.004505
AU3003   AU        0.615053    0.497241    0.655890     0.007504
PT3004   PT        0.655638    0.460295    0.655175     0.004505
AU3005   AU        0.654115    0.497773    0.616101     0.007504
PT3006   PT        0.693066    0.460031    0.618183     0.004505
PT3007   PT        0.693309    0.496893    0.657049     0.004505
PT3008   PT        0.731296    0.459721    0.657061     0.004505
AU3009   AU        0.732942    0.495601    0.616819     0.007504
AU3010   AU        0.771136    0.456607    0.613686     0.007504
PT3011   PT        0.769600    0.494052    0.656167     0.004505
AU3012   AU        0.809041    0.455907    0.652443     0.007504
PT3013   PT        0.810181    0.495161    0.615798     0.004505
PT3014   PT        0.846368    0.457003    0.615648     0.004505
PT3015   PT        0.847523    0.495920    0.652099     0.004505
PT3016   PT        0.882207    0.456773    0.651875     0.004505
PT3017   PT        0.882403    0.497542    0.614699     0.004505
PT3018   PT        0.038641    0.538183    0.652165     0.004505
PT3019   PT        0.040093    0.575986    0.615476     0.004505
PT3020   PT        0.076586    0.535006    0.615121     0.004505
PT3021   PT        0.077488    0.572852    0.655322     0.004505
AU3022   AU        0.114625    0.534585    0.652913     0.007504
PT3023   PT        0.115421    0.574441    0.617384     0.004505
PT3024   PT        0.151242    0.534854    0.614335     0.004505
PT3025   PT        0.152793    0.574571    0.654015     0.004505
PT3026   PT        0.187836    0.534246    0.651753     0.004505
PT3027   PT        0.187942    0.573731    0.615278     0.004505
AU3028   AU        0.228427    0.536006    0.617249     0.007504
AU3029   AU        0.227809    0.574592    0.654723     0.007504
PT3030   PT        0.267476    0.532895    0.657256     0.004505
AU3031   AU        0.267145    0.575674    0.615583     0.007504
AU3032   AU        0.304254    0.532859    0.615826     0.007504
AU3033   AU        0.306669    0.572046    0.655049     0.007504
AU3034   AU        0.343431    0.533748    0.654471     0.007504
AU3035   AU        0.343371    0.572297    0.616431     0.007504
AU3036   AU        0.383415    0.532767    0.616617     0.007504
AU3037   AU        0.384093    0.572664    0.653963     0.007504
AU3038   AU        0.423707    0.534039    0.652738     0.007504
AU3039   AU        0.422524    0.573432    0.617906     0.007504
PT3040   PT        0.459587    0.534810    0.613103     0.004505
AU3041   AU        0.459608    0.573069    0.655920     0.007504
AU3042   AU        0.499880    0.535699    0.655564     0.007504
AU3043   AU        0.497947    0.571536    0.616783     0.007504
AU3044   AU        0.537160    0.533701    0.618069     0.007504
AU3045   AU        0.538996    0.574462    0.654895     0.007504
AU3046   AU        0.578836    0.536724    0.653636     0.007504
AU3047   AU        0.577244    0.574353    0.616778     0.007504
AU3048   AU        0.615871    0.535908    0.616413     0.007504
AU3049   AU        0.615756    0.575213    0.655674     0.007504
AU3050   AU        0.655520    0.534329    0.656039     0.007504
PT3051   PT        0.655325    0.571325    0.616887     0.004505
AU3052   AU        0.694123    0.533879    0.617881     0.007504
PT3053   PT        0.691834    0.572388    0.656667     0.004505
AU3054   AU        0.733155    0.534930    0.656705     0.007504
AU3055   AU        0.732934    0.574651    0.617052     0.007504
AU3056   AU        0.769265    0.535933    0.617736     0.007504
AU3057   AU        0.770390    0.574335    0.653672     0.007504
PT3058   PT        0.809906    0.533190    0.653662     0.004505
AU3059   AU        0.808876    0.572980    0.616890     0.007504
AU3060   AU        0.844980    0.535736    0.615557     0.007504
PT3061   PT        0.844258    0.570482    0.651937     0.004505
PT3062   PT        0.883361    0.535057    0.651910     0.004505
PT3063   PT        0.880506    0.572323    0.615464     0.004505
PT3064   PT        0.077597    0.610644    0.614599     0.004505
PT3065   PT        0.078311    0.612108    0.690320     0.004505
PT3066   PT        0.115783    0.613882    0.654824     0.004505
AU3067   AU        0.115223    0.649968    0.614704     0.007504
PT3068   PT        0.153039    0.612584    0.615047     0.004505
PT3069   PT        0.154123    0.648762    0.653941     0.004505
PT3070   PT        0.190582    0.611611    0.655013     0.004505
AU3071   AU        0.190393    0.652283    0.615146     0.007504
AU3072   AU        0.228537    0.614024    0.616815     0.007504
PT3073   PT        0.228070    0.649789    0.656787     0.004505
AU3074   AU        0.265804    0.610492    0.656586     0.007504
PT3075   PT        0.268167    0.652501    0.614540     0.004505
AU3076   AU        0.306802    0.611480    0.617643     0.007504
AU3077   AU        0.304414    0.649688    0.654766     0.007504
AU3078   AU        0.342660    0.612213    0.656043     0.007504
AU3079   AU        0.346052    0.652692    0.612574     0.007504
AU3080   AU        0.382632    0.612635    0.615824     0.007504
AU3081   AU        0.383720    0.651209    0.653894     0.007504
PT3082   PT        0.423170    0.612592    0.653680     0.004505
AU3083   AU        0.422634    0.649540    0.614719     0.007504
AU3084   AU        0.461281    0.613156    0.617474     0.007504
AU3085   AU        0.462933    0.651540    0.651309     0.007504
AU3086   AU        0.498397    0.610968    0.654926     0.007504
AU3087   AU        0.499465    0.648972    0.614773     0.007504
PT3088   PT        0.537492    0.611877    0.615802     0.004505
PT3089   PT        0.539272    0.647575    0.656224     0.004505
AU3090   AU        0.577919    0.611846    0.656083     0.007504
PT3091   PT        0.577828    0.650434    0.614049     0.004505
PT3092   PT        0.614876    0.612666    0.616893     0.004505
AU3093   AU        0.616040    0.650681    0.655873     0.007504
AU3094   AU        0.653768    0.612781    0.654173     0.007504
AU3095   AU        0.655075    0.650812    0.616794     0.007504
AU3096   AU        0.691095    0.610016    0.616213     0.007504
PT3097   PT        0.691765    0.649629    0.654119     0.004505
AU3098   AU        0.732333    0.612137    0.654308     0.007504
PT3099   PT        0.733166    0.649622    0.615642     0.004505
AU3100   AU        0.771151    0.610455    0.615278     0.007504
AU3101   AU        0.769983    0.650486    0.653079     0.007504
PT3102   PT        0.807610    0.610350    0.652341     0.004505
PT3103   PT        0.807167    0.650476    0.614859     0.004505
PT3104   PT        0.844137    0.613260    0.617748     0.004505
PT3105   PT        0.843477    0.652848    0.655140     0.004505
PT3106   PT        0.117464    0.688110    0.652903     0.004505
PT3107   PT        0.116404    0.726538    0.616819     0.004505
PT3108   PT        0.152982    0.691131    0.616761     0.004505
PT3109   PT        0.155050    0.726915    0.653825     0.004505
PT3110   PT        0.191739    0.688378    0.654417     0.004505
AU3111   AU        0.191593    0.726835    0.615121     0.007504
AU3112   AU        0.230712    0.689829    0.616814     0.007504
PT3113   PT        0.227577    0.726963    0.653286     0.004505
AU3114   AU        0.266451    0.689456    0.653826     0.007504
PT3115   PT        0.266342    0.728225    0.615192     0.004505
PT3116   PT        0.305892    0.689239    0.618469     0.004505
AU3117   AU        0.305679    0.726908    0.654461     0.007504
AU3118   AU        0.344933    0.687964    0.653594     0.007504
PT3119   PT        0.344417    0.728378    0.618086     0.004505
AU3120   AU        0.385876    0.688273    0.615517     0.007504
AU3121   AU        0.383958    0.728357    0.657013     0.007504
PT3122   PT        0.422431    0.689679    0.655579     0.004505
AU3123   AU        0.424434    0.726887    0.617352     0.007504
AU3124   AU        0.460892    0.689045    0.614488     0.007504
PT3125   PT        0.461965    0.728077    0.655416     0.004505
AU3126   AU        0.499845    0.687754    0.652664     0.007504
PT3127   PT        0.499675    0.726327    0.617001     0.004505
AU3128   AU        0.537371    0.687401    0.614883     0.007504
PT3129   PT        0.537282    0.726344    0.655765     0.004505
AU3130   AU        0.576954    0.687136    0.655026     0.007504
AU3131   AU        0.575243    0.727846    0.615691     0.007504
AU3132   AU        0.614147    0.688964    0.616435     0.007504
PT3133   PT        0.616750    0.725355    0.653907     0.004505
PT3134   PT        0.655947    0.688764    0.653683     0.004505
AU3135   AU        0.654690    0.726940    0.614561     0.007504
AU3136   AU        0.694720    0.687841    0.614632     0.007504
AU3137   AU        0.692693    0.726857    0.655445     0.007504
AU3138   AU        0.732076    0.688911    0.656821     0.007504
PT3139   PT        0.731019    0.725473    0.617403     0.004505
AU3140   AU        0.768635    0.688918    0.613208     0.007504
PT3141   PT        0.768129    0.724940    0.652446     0.004505
PT3142   PT        0.805094    0.687272    0.652764     0.004505
PT3143   PT        0.805891    0.724884    0.614108     0.004505
PT3144   PT        0.155258    0.764368    0.616114     0.004505
PT3145   PT        0.192041    0.763461    0.654497     0.004505
PT3146   PT        0.194755    0.801366    0.614230     0.004505
AU3147   AU        0.230064    0.765317    0.616270     0.007504
AU3148   AU        0.231299    0.801511    0.653308     0.007504
PT3149   PT        0.266626    0.762981    0.653101     0.004505
PT3150   PT        0.269013    0.804197    0.613580     0.004505
PT3151   PT        0.304278    0.764545    0.615234     0.004505
AU3152   AU        0.304869    0.803521    0.653406     0.007504
AU3153   AU        0.346390    0.765367    0.656201     0.007504
AU3154   AU        0.343250    0.803919    0.616171     0.007504
AU3155   AU        0.384130    0.767152    0.616451     0.007504
PT3156   PT        0.383700    0.802496    0.657275     0.004505
PT3157   PT        0.423447    0.765215    0.655954     0.004505
PT3158   PT        0.421186    0.802874    0.618402     0.004505
AU3159   AU        0.460742    0.766669    0.615223     0.007504
AU3160   AU        0.460216    0.803493    0.655286     0.007504
PT3161   PT        0.497851    0.766178    0.654038     0.004505
AU3162   AU        0.500608    0.804367    0.616770     0.007504
PT3163   PT        0.538459    0.765771    0.615939     0.004505
PT3164   PT        0.538154    0.802010    0.653214     0.004505
AU3165   AU        0.575005    0.764895    0.656541     0.007504
PT3166   PT        0.577317    0.804150    0.613927     0.004505
PT3167   PT        0.614725    0.765525    0.615909     0.004505
PT3168   PT        0.613047    0.802447    0.653763     0.004505
PT3169   PT        0.653322    0.763391    0.651371     0.004505
AU3170   AU        0.651968    0.801931    0.614104     0.007504
PT3171   PT        0.693299    0.763846    0.615747     0.004505
PT3172   PT        0.687918    0.801704    0.651979     0.004505
AU3173   AU        0.730502    0.764446    0.651534     0.007504
PT3174   PT        0.728113    0.800373    0.616796     0.004505
AU3175   AU        0.766970    0.762702    0.616307     0.007504
AU3176   AU        0.266702    0.838938    0.655220     0.007504
PT3177   PT        0.307184    0.841471    0.614587     0.004505
PT3178   PT        0.345436    0.840046    0.654964     0.004505
PT3179   PT        0.343726    0.876836    0.617730     0.004505
PT3180   PT        0.380195    0.840411    0.617002     0.004505
PT3181   PT        0.383573    0.875967    0.652870     0.004505
PT3182   PT        0.422762    0.839576    0.654579     0.004505
PT3183   PT        0.422289    0.877836    0.617342     0.004505
PT3184   PT        0.460169    0.840314    0.617131     0.004505
PT3185   PT        0.462259    0.878268    0.656392     0.004505
PT3186   PT        0.498228    0.840558    0.655400     0.004505
AU3187   AU        0.499516    0.876499    0.617543     0.007504
AU3188   AU        0.539283    0.840051    0.616687     0.007504
PT3189   PT        0.537368    0.874560    0.652771     0.004505
AU3190   AU        0.576029    0.839179    0.652473     0.007504
AU3191   AU        0.577472    0.876662    0.616862     0.007504
PT3192   PT        0.615501    0.840131    0.614684     0.004505
AU3193   AU        0.650233    0.837546    0.652642     0.007504
PT3194   PT        0.269285    0.112571    0.691424     0.004505
PT3195   PT        0.307195    0.113350    0.730972     0.004505
PT3196   PT        0.346709    0.111965    0.693429     0.004505
PT3197   PT        0.385682    0.074106    0.692725     0.004505
PT3198   PT        0.385680    0.110990    0.730369     0.004505
PT3199   PT        0.423571    0.074940    0.729474     0.004505
PT3200   PT        0.422348    0.111097    0.693333     0.004505
PT3201   PT        0.460779    0.075441    0.693054     0.004505
PT3202   PT        0.462881    0.112091    0.730638     0.004505
AU3203   AU        0.500307    0.074728    0.729496     0.007504
PT3204   PT        0.499825    0.111574    0.693152     0.004505
PT3205   PT        0.538311    0.074139    0.691809     0.004505
AU3206   AU        0.538614    0.113831    0.732378     0.007504
PT3207   PT        0.577886    0.112154    0.693225     0.004505
PT3208   PT        0.615910    0.112867    0.731798     0.004505
AU3209   AU        0.652892    0.114490    0.690214     0.007504
AU3210   AU        0.192687    0.188691    0.692619     0.007504
PT3211   PT        0.231070    0.150959    0.691051     0.004505
PT3212   PT        0.230907    0.190221    0.730473     0.004505
AU3213   AU        0.268834    0.149725    0.727796     0.007504
PT3214   PT        0.268189    0.187959    0.692806     0.004505
PT3215   PT        0.307522    0.149576    0.693762     0.004505
PT3216   PT        0.306451    0.186952    0.731868     0.004505
AU3217   AU        0.345209    0.149245    0.730775     0.007504
PT3218   PT        0.346187    0.186089    0.694831     0.004505
PT3219   PT        0.386279    0.148604    0.693731     0.004505
PT3220   PT        0.384404    0.185720    0.731941     0.004505
AU3221   AU        0.424961    0.149079    0.732840     0.007504
PT3222   PT        0.425008    0.186094    0.693221     0.004505
AU3223   AU        0.460963    0.148426    0.694979     0.007504
AU3224   AU        0.462804    0.186150    0.732756     0.007504
AU3225   AU        0.500932    0.149516    0.731055     0.007504
PT3226   PT        0.498068    0.187516    0.694396     0.004505
PT3227   PT        0.538435    0.148301    0.692892     0.004505
PT3228   PT        0.538198    0.187704    0.730847     0.004505
PT3229   PT        0.575861    0.149163    0.731624     0.004505
AU3230   AU        0.578451    0.188236    0.695376     0.007504
PT3231   PT        0.615768    0.148934    0.692046     0.004505
PT3232   PT        0.616487    0.186718    0.730145     0.004505
PT3233   PT        0.655013    0.150067    0.729016     0.004505
AU3234   AU        0.654644    0.188120    0.691586     0.007504
AU3235   AU        0.690056    0.150935    0.692093     0.007504
PT3236   PT        0.693758    0.187732    0.730030     0.004505
PT3237   PT        0.729846    0.186786    0.692509     0.004505
PT3238   PT        0.117474    0.264651    0.692083     0.004505
PT3239   PT        0.154171    0.227071    0.692269     0.004505
PT3240   PT        0.153816    0.266219    0.729680     0.004505
AU3241   AU        0.191551    0.227890    0.731201     0.007504
AU3242   AU        0.191625    0.263013    0.692775     0.007504
PT3243   PT        0.231433    0.225454    0.694318     0.004505
PT3244   PT        0.230235    0.264671    0.733844     0.004505
AU3245   AU        0.267790    0.226254    0.732505     0.007504
PT3246   PT        0.267185    0.264204    0.694390     0.004505
PT3247   PT        0.305442    0.225700    0.692919     0.004505
AU3248   AU        0.307479    0.263812    0.732802     0.007504
AU3249   AU        0.345006    0.223842    0.732924     0.007504
AU3250   AU        0.343887    0.263443    0.693151     0.007504
PT3251   PT        0.384612    0.225395    0.694350     0.004505
AU3252   AU        0.381815    0.261762    0.730686     0.007504
PT3253   PT        0.423627    0.223038    0.732186     0.004505
AU3254   AU        0.424041    0.264111    0.696190     0.007504
AU3255   AU        0.461199    0.225572    0.694439     0.007504
AU3256   AU        0.461166    0.265119    0.733264     0.007504
AU3257   AU        0.497597    0.225749    0.732533     0.007504
PT3258   PT        0.498553    0.264130    0.695882     0.004505
PT3259   PT        0.539048    0.224240    0.694213     0.004505
AU3260   AU        0.537869    0.261761    0.733826     0.007504
AU3261   AU        0.577235    0.224251    0.733222     0.007504
AU3262   AU        0.577057    0.263623    0.695522     0.007504
AU3263   AU        0.616329    0.225704    0.692799     0.007504
AU3264   AU        0.615807    0.262675    0.731607     0.007504
AU3265   AU        0.656171    0.225734    0.732121     0.007504
PT3266   PT        0.653615    0.264561    0.694061     0.004505
AU3267   AU        0.694951    0.227226    0.692788     0.007504
PT3268   PT        0.693559    0.264423    0.731731     0.004505
PT3269   PT        0.730355    0.226794    0.729997     0.004505
PT3270   PT        0.730083    0.264900    0.691435     0.004505
PT3271   PT        0.766984    0.226411    0.693293     0.004505
PT3272   PT        0.767711    0.265032    0.731185     0.004505
PT3273   PT        0.805040    0.262225    0.694501     0.004505
AU3274   AU        0.115680    0.301813    0.729566     0.007504
AU3275   AU        0.113637    0.341898    0.693361     0.007504
PT3276   PT        0.153855    0.303021    0.693654     0.004505
AU3277   AU        0.152121    0.342658    0.731956     0.007504
AU3278   AU        0.192679    0.302609    0.731615     0.007504
AU3279   AU        0.193445    0.340220    0.695981     0.007504
AU3280   AU        0.229975    0.302037    0.694945     0.007504
AU3281   AU        0.229353    0.341482    0.732846     0.007504
AU3282   AU        0.268747    0.300363    0.732981     0.007504
AU3283   AU        0.267424    0.339160    0.696445     0.007504
PT3284   PT        0.308540    0.302582    0.695781     0.004505
AU3285   AU        0.306365    0.340355    0.733772     0.007504
AU3286   AU        0.345890    0.300338    0.734036     0.007504
AU3287   AU        0.348184    0.340023    0.695339     0.007504
PT3288   PT        0.384122    0.300889    0.696491     0.004505
AU3289   AU        0.386266    0.340191    0.733881     0.007504
PT3290   PT        0.422004    0.300795    0.732407     0.004505
AU3291   AU        0.422256    0.342941    0.692634     0.007504
AU3292   AU        0.462217    0.302238    0.693570     0.007504
AU3293   AU        0.457420    0.341735    0.732153     0.007504
PT3294   PT        0.501681    0.299896    0.733718     0.004505
AU3295   AU        0.499049    0.339914    0.694110     0.007504
AU3296   AU        0.540165    0.303284    0.694905     0.007504
AU3297   AU        0.537469    0.342448    0.733529     0.007504
AU3298   AU        0.578554    0.301917    0.733475     0.007504
PT3299   PT        0.577394    0.341423    0.694082     0.004505
AU3300   AU        0.616015    0.303692    0.692787     0.007504
PT3301   PT        0.615051    0.340127    0.733123     0.004505
PT3302   PT        0.655349    0.304378    0.733598     0.004505
AU3303   AU        0.652327    0.341393    0.694811     0.007504
AU3304   AU        0.691415    0.303752    0.695604     0.007504
AU3305   AU        0.692990    0.340442    0.732433     0.007504
PT3306   PT        0.729885    0.303148    0.731533     0.004505
AU3307   AU        0.731058    0.342407    0.693782     0.007504
AU3308   AU        0.769333    0.304346    0.693364     0.007504
PT3309   PT        0.767969    0.341212    0.731086     0.004505
PT3310   PT        0.805114    0.301955    0.730064     0.004505
PT3311   PT        0.806641    0.341886    0.692537     0.004505
PT3312   PT        0.078658    0.380108    0.692921     0.004505
PT3313   PT        0.077466    0.419028    0.732020     0.004505
PT3314   PT        0.116009    0.381348    0.730468     0.004505
PT3315   PT        0.115862    0.418699    0.692735     0.004505
AU3316   AU        0.151182    0.378367    0.693782     0.007504
AU3317   AU        0.153398    0.418449    0.731248     0.007504
AU3318   AU        0.190356    0.380892    0.730546     0.007504
AU3319   AU        0.190991    0.419946    0.691759     0.007504
AU3320   AU        0.230735    0.378883    0.695845     0.007504
PT3321   PT        0.227968    0.420749    0.731982     0.004505
AU3322   AU        0.267522    0.380050    0.734246     0.007504
PT3323   PT        0.266864    0.419929    0.693491     0.004505
PT3324   PT        0.311105    0.376721    0.695614     0.004505
AU3325   AU        0.306481    0.418963    0.731890     0.007504
AU3326   AU        0.347466    0.381013    0.732977     0.007504
AU3327   AU        0.347399    0.417485    0.694655     0.007504
AU3328   AU        0.384300    0.379592    0.695388     0.007504
AU3329   AU        0.383676    0.418674    0.733110     0.007504
PT3330   PT        0.423680    0.380763    0.732029     0.004505
AU3331   AU        0.420632    0.419267    0.695634     0.007504
AU3332   AU        0.461815    0.381168    0.693357     0.007504
PT3333   PT        0.463427    0.419149    0.732582     0.004505
AU3334   AU        0.500263    0.380281    0.731560     0.007504
AU3335   AU        0.500092    0.420125    0.692037     0.007504
AU3336   AU        0.538270    0.379990    0.692763     0.007504
PT3337   PT        0.538838    0.419357    0.729993     0.004505
PT3338   PT        0.577621    0.380879    0.731300     0.004505
PT3339   PT        0.577218    0.417483    0.692518     0.004505
PT3340   PT        0.617090    0.382508    0.694589     0.004505
AU3341   AU        0.618705    0.417840    0.732661     0.007504
PT3342   PT        0.655434    0.380081    0.731240     0.004505
AU3343   AU        0.654238    0.419354    0.693009     0.007504
AU3344   AU        0.694054    0.380782    0.693615     0.007504
AU3345   AU        0.694043    0.419399    0.731000     0.007504
AU3346   AU        0.731845    0.379898    0.731980     0.007504
AU3347   AU        0.730724    0.419091    0.694392     0.007504
PT3348   PT        0.769306    0.379211    0.694714     0.004505
AU3349   AU        0.768273    0.417587    0.730725     0.007504
AU3350   AU        0.807869    0.380695    0.729474     0.007504
PT3351   PT        0.807473    0.417062    0.691300     0.004505
PT3352   PT        0.845289    0.379957    0.690585     0.004505
PT3353   PT        0.845441    0.420179    0.728215     0.004505
AU3354   AU        0.077984    0.455554    0.693074     0.007504
PT3355   PT        0.079840    0.494985    0.729067     0.004505
AU3356   AU        0.114980    0.455493    0.730774     0.007504
PT3357   PT        0.115219    0.496826    0.692492     0.004505
PT3358   PT        0.151639    0.457010    0.692927     0.004505
PT3359   PT        0.152482    0.495795    0.730872     0.004505
PT3360   PT        0.189603    0.455746    0.731999     0.004505
PT3361   PT        0.188768    0.495679    0.693437     0.004505
AU3362   AU        0.231045    0.457942    0.694349     0.007504
PT3363   PT        0.229403    0.496604    0.731660     0.004505
PT3364   PT        0.268083    0.456253    0.734511     0.004505
PT3365   PT        0.270018    0.495704    0.696835     0.004505
PT3366   PT        0.307370    0.458023    0.693313     0.004505
AU3367   AU        0.307349    0.494798    0.733264     0.007504
AU3368   AU        0.346484    0.456247    0.732025     0.007504
AU3369   AU        0.343786    0.496162    0.694972     0.007504
AU3370   AU        0.383456    0.459725    0.692656     0.007504
PT3371   PT        0.382639    0.495961    0.730872     0.004505
AU3372   AU        0.421858    0.458214    0.733218     0.007504
AU3373   AU        0.420815    0.496451    0.693504     0.007504
AU3374   AU        0.461539    0.454089    0.694134     0.007504
AU3375   AU        0.463368    0.495080    0.734243     0.007504
AU3376   AU        0.499418    0.457546    0.730446     0.007504
PT3377   PT        0.501742    0.498349    0.694964     0.004505
AU3378   AU        0.539089    0.458146    0.691715     0.007504
AU3379   AU        0.540242    0.496480    0.732817     0.007504
PT3380   PT        0.577950    0.455841    0.730964     0.004505
PT3381   PT        0.576487    0.496703    0.694312     0.004505
AU3382   AU        0.615755    0.458978    0.693801     0.007504
AU3383   AU        0.615849    0.495276    0.731579     0.007504
AU3384   AU        0.656639    0.458210    0.729594     0.007504
PT3385   PT        0.655217    0.498123    0.694867     0.004505
AU3386   AU        0.693364    0.458361    0.693694     0.007504
PT3387   PT        0.692989    0.496225    0.732305     0.004505
PT3388   PT        0.734547    0.459420    0.731142     0.004505
AU3389   AU        0.731897    0.496561    0.693862     0.007504
AU3390   AU        0.770958    0.456145    0.692624     0.007504
PT3391   PT        0.770341    0.495856    0.729627     0.004505
PT3392   PT        0.808463    0.456433    0.730140     0.004505
AU3393   AU        0.807600    0.494079    0.690699     0.007504
PT3394   PT        0.843598    0.454988    0.692214     0.004505
PT3395   PT        0.845152    0.496446    0.727257     0.004505
PT3396   PT        0.077551    0.534110    0.691974     0.004505
AU3397   AU        0.114532    0.531251    0.731498     0.007504
AU3398   AU        0.115368    0.573170    0.693216     0.007504
PT3399   PT        0.152604    0.535288    0.690753     0.004505
AU3400   AU        0.152735    0.571103    0.732094     0.007504
AU3401   AU        0.192235    0.531813    0.732480     0.007504
AU3402   AU        0.189378    0.574219    0.691394     0.007504
PT3403   PT        0.227487    0.535115    0.694828     0.004505
PT3404   PT        0.227154    0.572695    0.732186     0.004505
AU3405   AU        0.268246    0.536241    0.733198     0.007504
AU3406   AU        0.266308    0.572243    0.694043     0.007504
AU3407   AU        0.307492    0.535619    0.691833     0.007504
AU3408   AU        0.306214    0.575120    0.731064     0.007504
AU3409   AU        0.344396    0.535257    0.733273     0.007504
PT3410   PT        0.346099    0.571551    0.692961     0.004505
AU3411   AU        0.382681    0.534542    0.691999     0.007504
PT3412   PT        0.384049    0.573424    0.729947     0.004505
PT3413   PT        0.419636    0.535494    0.731155     0.004505
AU3414   AU        0.420498    0.573679    0.693386     0.007504
AU3415   AU        0.457343    0.534667    0.694894     0.007504
AU3416   AU        0.461440    0.571566    0.733530     0.007504
AU3417   AU        0.500453    0.535237    0.730700     0.007504
AU3418   AU        0.499897    0.572895    0.693100     0.007504
PT3419   PT        0.540906    0.536053    0.692926     0.004505
AU3420   AU        0.538776    0.570557    0.732756     0.007504
PT3421   PT        0.577228    0.534212    0.731819     0.004505
AU3422   AU        0.578596    0.572489    0.694365     0.007504
AU3423   AU        0.615167    0.534042    0.694445     0.007504
AU3424   AU        0.615397    0.572354    0.730894     0.007504
AU3425   AU        0.653866    0.535274    0.732274     0.007504
AU3426   AU        0.653665    0.571674    0.693790     0.007504
AU3427   AU        0.693689    0.534866    0.694283     0.007504
AU3428   AU        0.694583    0.573694    0.731333     0.007504
PT3429   PT        0.731503    0.534862    0.732830     0.004505
AU3430   AU        0.733258    0.571882    0.692121     0.007504
PT3431   PT        0.770816    0.532799    0.693462     0.004505
AU3432   AU        0.767397    0.573065    0.731979     0.007504
PT3433   PT        0.808084    0.532534    0.728130     0.004505
PT3434   PT        0.807603    0.572198    0.692284     0.004505
AU3435   AU        0.846112    0.532964    0.692561     0.007504
PT3436   PT        0.116657    0.611150    0.731843     0.004505
PT3437   PT        0.116045    0.648391    0.692437     0.004505
PT3438   PT        0.154018    0.611826    0.693127     0.004505
AU3439   AU        0.152569    0.649326    0.730014     0.007504
PT3440   PT        0.190886    0.613075    0.731454     0.004505
PT3441   PT        0.190076    0.650657    0.692571     0.004505
AU3442   AU        0.227314    0.611553    0.694155     0.007504
AU3443   AU        0.228723    0.650258    0.729458     0.007504
PT3444   PT        0.266526    0.613491    0.730744     0.004505
AU3445   AU        0.266778    0.650249    0.694049     0.007504
AU3446   AU        0.306007    0.611250    0.691276     0.007504
AU3447   AU        0.303903    0.650086    0.732865     0.007504
PT3448   PT        0.343659    0.612101    0.733321     0.004505
AU3449   AU        0.346598    0.649826    0.692457     0.007504
AU3450   AU        0.382679    0.610919    0.694326     0.007504
PT3451   PT        0.382906    0.650655    0.730659     0.004505
AU3452   AU        0.422513    0.609636    0.732867     0.007504
AU3453   AU        0.420128    0.649900    0.693665     0.007504
AU3454   AU        0.460415    0.610872    0.693675     0.007504
PT3455   PT        0.460898    0.650386    0.729569     0.004505
PT3456   PT        0.500617    0.611177    0.730484     0.004505
AU3457   AU        0.498956    0.649831    0.692705     0.007504
PT3458   PT        0.539362    0.609362    0.695342     0.004505
PT3459   PT        0.536613    0.650847    0.734113     0.004505
AU3460   AU        0.577040    0.612236    0.734104     0.007504
AU3461   AU        0.577940    0.649783    0.693587     0.007504
AU3462   AU        0.616619    0.611127    0.693995     0.007504
PT3463   PT        0.616232    0.650382    0.728646     0.004505
PT3464   PT        0.652760    0.612741    0.731127     0.004505
AU3465   AU        0.655169    0.650090    0.693055     0.007504
AU3466   AU        0.692096    0.609813    0.694136     0.007504
AU3467   AU        0.691892    0.650333    0.731621     0.007504
PT3468   PT        0.730150    0.611355    0.731017     0.004505
PT3469   PT        0.730130    0.649388    0.691100     0.004505
AU3470   AU        0.768489    0.612506    0.693880     0.007504
PT3471   PT        0.767387    0.650164    0.730982     0.004505
PT3472   PT        0.805663    0.612509    0.731439     0.004505
PT3473   PT        0.806232    0.648364    0.690916     0.004505
PT3474   PT        0.152829    0.688452    0.690999     0.004505
PT3475   PT        0.191989    0.686039    0.729973     0.004505
AU3476   AU        0.190455    0.727256    0.693122     0.007504
PT3477   PT        0.228962    0.689183    0.691420     0.004505
PT3478   PT        0.228310    0.723053    0.730640     0.004505
PT3479   PT        0.266956    0.687363    0.732386     0.004505
AU3480   AU        0.267594    0.726679    0.692934     0.007504
AU3481   AU        0.303451    0.689505    0.693370     0.007504
PT3482   PT        0.306246    0.727779    0.732029     0.004505
PT3483   PT        0.342927    0.686964    0.732056     0.004505
PT3484   PT        0.345875    0.726170    0.693284     0.004505
PT3485   PT        0.383914    0.687374    0.693285     0.004505
PT3486   PT        0.385013    0.726074    0.732206     0.004505
AU3487   AU        0.422817    0.688555    0.731762     0.007504
AU3488   AU        0.422937    0.726319    0.693986     0.007504
PT3489   PT        0.462602    0.687024    0.691390     0.004505
PT3490   PT        0.460844    0.726101    0.731391     0.004505
PT3491   PT        0.499527    0.687071    0.730317     0.004505
PT3492   PT        0.497312    0.727832    0.694923     0.004505
AU3493   AU        0.537124    0.686654    0.692633     0.007504
AU3494   AU        0.535477    0.726079    0.730204     0.007504
PT3495   PT        0.578179    0.688535    0.730316     0.004505
PT3496   PT        0.575356    0.726653    0.692135     0.004505
AU3497   AU        0.614712    0.688785    0.693174     0.007504
PT3498   PT        0.614149    0.726839    0.732697     0.004505
AU3499   AU        0.654194    0.687458    0.731971     0.007504
PT3500   PT        0.653434    0.728051    0.691829     0.004505
PT3501   PT        0.692446    0.687282    0.694021     0.004505
AU3502   AU        0.691829    0.724364    0.730993     0.007504
PT3503   PT        0.729119    0.686283    0.729395     0.004505
AU3504   AU        0.731052    0.726488    0.690383     0.007504
PT3505   PT        0.769199    0.686136    0.693059     0.004505
AU3506   AU        0.229436    0.762710    0.691563     0.007504
PT3507   PT        0.265739    0.765504    0.729725     0.004505
PT3508   PT        0.266946    0.800130    0.692449     0.004505
PT3509   PT        0.304330    0.764759    0.693029     0.004505
AU3510   AU        0.304934    0.799879    0.730657     0.007504
PT3511   PT        0.346049    0.762832    0.731108     0.004505
PT3512   PT        0.347576    0.802464    0.695070     0.004505
PT3513   PT        0.384317    0.763963    0.694596     0.004505
PT3514   PT        0.386168    0.801115    0.729504     0.004505
PT3515   PT        0.423432    0.763889    0.731336     0.004505
PT3516   PT        0.421679    0.803463    0.692640     0.004505
PT3517   PT        0.459949    0.765755    0.693475     0.004505
PT3518   PT        0.461480    0.803085    0.730949     0.004505
PT3519   PT        0.499104    0.764461    0.731018     0.004505
PT3520   PT        0.497896    0.802242    0.692488     0.004505
PT3521   PT        0.535887    0.763801    0.693708     0.004505
PT3522   PT        0.536566    0.801871    0.729043     0.004505
AU3523   AU        0.574096    0.764613    0.730783     0.007504
AU3524   AU        0.575726    0.802930    0.691498     0.007504
PT3525   PT        0.615012    0.764581    0.689773     0.004505
PT3526   PT        0.614344    0.800247    0.728146     0.004505
PT3527   PT        0.651393    0.762743    0.729674     0.004505
AU3528   AU        0.651500    0.799740    0.690819     0.007504
AU3529   AU        0.690059    0.764879    0.690251     0.007504
PT3530   PT        0.384993    0.841136    0.691552     0.004505
AU3531   AU        0.422748    0.838485    0.730214     0.007504
AU3532   AU        0.459988    0.840278    0.693233     0.007504
PT3533   PT        0.498627    0.839324    0.728990     0.004505
PT3534   PT        0.536971    0.838971    0.690298     0.004505
AU3535   AU        0.424261    0.112242    0.768086     0.007504
AU3536   AU        0.500187    0.111258    0.768718     0.007504
AU3537   AU        0.268992    0.187547    0.768521     0.007504
PT3538   PT        0.305414    0.149588    0.766345     0.004505
PT3539   PT        0.307985    0.186238    0.804868     0.004505
PT3540   PT        0.346437    0.186608    0.768360     0.004505
AU3541   AU        0.384540    0.148527    0.768071     0.007504
PT3542   PT        0.387176    0.189423    0.805751     0.004505
PT3543   PT        0.425266    0.148954    0.808061     0.004505
PT3544   PT        0.422563    0.186650    0.768974     0.004505
PT3545   PT        0.462173    0.148551    0.767976     0.004505
AU3546   AU        0.463154    0.187205    0.806898     0.007504
PT3547   PT        0.500738    0.151305    0.805914     0.004505
AU3548   AU        0.501093    0.187849    0.769106     0.007504
PT3549   PT        0.537521    0.151096    0.768460     0.004505
AU3550   AU        0.537330    0.188018    0.806437     0.007504
AU3551   AU        0.576492    0.187938    0.768289     0.007504
AU3552   AU        0.617380    0.149923    0.766792     0.007504
PT3553   PT        0.616581    0.187731    0.805198     0.004505
PT3554   PT        0.655583    0.188019    0.767321     0.004505
PT3555   PT        0.192143    0.264489    0.769322     0.004505
AU3556   AU        0.230171    0.228205    0.769021     0.007504
AU3557   AU        0.231633    0.264414    0.807069     0.007504
PT3558   PT        0.268093    0.223144    0.805420     0.004505
PT3559   PT        0.269536    0.264011    0.769787     0.004505
PT3560   PT        0.308081    0.224922    0.770560     0.004505
PT3561   PT        0.307485    0.264525    0.806771     0.004505
AU3562   AU        0.344881    0.227023    0.810329     0.007504
AU3563   AU        0.343562    0.262611    0.769851     0.007504
AU3564   AU        0.380689    0.225717    0.770628     0.007504
AU3565   AU        0.381946    0.264969    0.808332     0.007504
AU3566   AU        0.422858    0.224611    0.807188     0.007504
AU3567   AU        0.421441    0.265163    0.771955     0.007504
PT3568   PT        0.460415    0.225807    0.770897     0.004505
PT3569   PT        0.462108    0.264718    0.807321     0.004505
PT3570   PT        0.500480    0.224291    0.807919     0.004505
PT3571   PT        0.500696    0.262656    0.771168     0.004505
AU3572   AU        0.538674    0.225777    0.769920     0.007504
AU3573   AU        0.538777    0.264727    0.807244     0.007504
PT3574   PT        0.577531    0.226241    0.806475     0.004505
PT3575   PT        0.576689    0.263290    0.769960     0.004505
AU3576   AU        0.614580    0.225362    0.769182     0.007504
AU3577   AU        0.615080    0.264189    0.806795     0.007504
PT3578   PT        0.652580    0.227410    0.806003     0.004505
PT3579   PT        0.653250    0.264756    0.769104     0.004505
PT3580   PT        0.691789    0.226628    0.769608     0.004505
PT3581   PT        0.692038    0.266345    0.805883     0.004505
PT3582   PT        0.729987    0.263317    0.769653     0.004505
PT3583   PT        0.154372    0.304701    0.767176     0.004505
PT3584   PT        0.191356    0.303627    0.804680     0.004505
AU3585   AU        0.190507    0.343424    0.767710     0.007504
AU3586   AU        0.230308    0.302620    0.770013     0.007504
PT3587   PT        0.229740    0.342361    0.805841     0.004505
PT3588   PT        0.271223    0.302043    0.807613     0.004505
AU3589   AU        0.266566    0.339391    0.768644     0.007504
PT3590   PT        0.306639    0.303892    0.769462     0.004505
PT3591   PT        0.307145    0.341205    0.807345     0.004505
PT3592   PT        0.344939    0.304170    0.808338     0.004505
AU3593   AU        0.345145    0.341105    0.769729     0.007504
PT3594   PT        0.385341    0.303646    0.772051     0.004505
AU3595   AU        0.384795    0.342581    0.809888     0.007504
AU3596   AU        0.422514    0.302406    0.809379     0.007504
PT3597   PT        0.423385    0.340390    0.772127     0.004505
AU3598   AU        0.461807    0.301678    0.771746     0.007504
AU3599   AU        0.462862    0.341291    0.809757     0.007504
AU3600   AU        0.500637    0.303857    0.809358     0.007504
AU3601   AU        0.501220    0.341859    0.771893     0.007504
PT3602   PT        0.538326    0.301971    0.771425     0.004505
AU3603   AU        0.539589    0.341262    0.809969     0.007504
AU3604   AU        0.578267    0.303749    0.808543     0.007504
AU3605   AU        0.575790    0.339844    0.772011     0.007504
PT3606   PT        0.616469    0.304566    0.769759     0.004505
PT3607   PT        0.616408    0.341494    0.808043     0.004505
PT3608   PT        0.655039    0.303764    0.807158     0.004505
PT3609   PT        0.655566    0.341635    0.769865     0.004505
PT3610   PT        0.691870    0.303614    0.770993     0.004505
PT3611   PT        0.693766    0.343122    0.805716     0.004505
PT3612   PT        0.732126    0.302321    0.805758     0.004505
PT3613   PT        0.730447    0.342170    0.768971     0.004505
PT3614   PT        0.767341    0.301186    0.767394     0.004505
PT3615   PT        0.117052    0.419731    0.768781     0.004505
PT3616   PT        0.152410    0.380228    0.768631     0.004505
PT3617   PT        0.152703    0.420088    0.807397     0.004505
AU3618   AU        0.191736    0.380824    0.805861     0.007504
AU3619   AU        0.190457    0.418181    0.769363     0.007504
PT3620   PT        0.229226    0.380262    0.769132     0.004505
AU3621   AU        0.229102    0.418319    0.807314     0.007504
PT3622   PT        0.267511    0.377830    0.805883     0.004505
PT3623   PT        0.268532    0.417617    0.770516     0.004505
AU3624   AU        0.307275    0.379798    0.770109     0.007504
AU3625   AU        0.307293    0.418932    0.807572     0.007504
AU3626   AU        0.345803    0.377763    0.807334     0.007504
PT3627   PT        0.345102    0.416529    0.772275     0.004505
AU3628   AU        0.383000    0.380759    0.771463     0.007504
PT3629   PT        0.385611    0.418173    0.808946     0.004505
PT3630   PT        0.425110    0.378100    0.809200     0.004505
AU3631   AU        0.423637    0.419171    0.769097     0.007504
AU3632   AU        0.462733    0.379770    0.770158     0.007504
PT3633   PT        0.461233    0.414953    0.808994     0.004505
PT3634   PT        0.501607    0.380147    0.810879     0.004505
PT3635   PT        0.501704    0.420166    0.770297     0.004505
AU3636   AU        0.539579    0.379523    0.771156     0.007504
AU3637   AU        0.539170    0.416843    0.809588     0.007504
AU3638   AU        0.577913    0.380202    0.810128     0.007504
AU3639   AU        0.577317    0.416007    0.771670     0.007504
AU3640   AU        0.613379    0.377491    0.770580     0.007504
PT3641   PT        0.617185    0.418150    0.808545     0.004505
PT3642   PT        0.652792    0.380507    0.807339     0.004505
PT3643   PT        0.658429    0.421975    0.769555     0.004505
AU3644   AU        0.692479    0.379739    0.768752     0.007504
PT3645   PT        0.694817    0.419154    0.806527     0.004505
PT3646   PT        0.730823    0.380138    0.805427     0.004505
AU3647   AU        0.730438    0.420127    0.768400     0.007504
PT3648   PT        0.769314    0.379873    0.768186     0.004505
AU3649   AU        0.779364    0.454097    0.817905     0.007504
PT3650   PT        0.806599    0.417635    0.766986     0.004505
PT3651   PT        0.115696    0.492917    0.768648     0.004505
PT3652   PT        0.153809    0.456455    0.769931     0.004505
PT3653   PT        0.154931    0.494726    0.806811     0.004505
PT3654   PT        0.191392    0.456648    0.807328     0.004505
AU3655   AU        0.192105    0.495719    0.770082     0.007504
PT3656   PT        0.230627    0.456739    0.770616     0.004505
PT3657   PT        0.228097    0.493692    0.807475     0.004505
AU3658   AU        0.266930    0.456961    0.807742     0.007504
AU3659   AU        0.266099    0.496074    0.770345     0.007504
PT3660   PT        0.308931    0.456894    0.770044     0.004505
PT3661   PT        0.304978    0.495236    0.806924     0.004505
PT3662   PT        0.346765    0.455582    0.808321     0.004505
AU3663   AU        0.345405    0.495189    0.772252     0.007504
AU3664   AU        0.384337    0.456141    0.772068     0.007504
AU3665   AU        0.384009    0.496681    0.808111     0.007504
AU3666   AU        0.423217    0.455143    0.807590     0.007504
AU3667   AU        0.419077    0.499753    0.767950     0.007504
AU3668   AU        0.464754    0.455770    0.770165     0.007504
AU3669   AU        0.461916    0.495482    0.806158     0.007504
PT3670   PT        0.501983    0.457310    0.807318     0.004505
PT3671   PT        0.501644    0.495498    0.769855     0.004505
AU3672   AU        0.540007    0.457651    0.770295     0.007504
AU3673   AU        0.539513    0.495821    0.808022     0.007504
PT3674   PT        0.579080    0.457424    0.809717     0.004505
AU3675   AU        0.577784    0.496801    0.769282     0.007504
PT3676   PT        0.617983    0.457408    0.769139     0.004505
AU3677   AU        0.615583    0.495821    0.808055     0.007504
AU3678   AU        0.655826    0.457569    0.808129     0.007504
PT3679   PT        0.655644    0.493941    0.771424     0.004505
PT3680   PT        0.695640    0.459545    0.769913     0.004505
PT3681   PT        0.693578    0.495780    0.806899     0.004505
PT3682   PT        0.730068    0.459211    0.807135     0.004505
PT3683   PT        0.730897    0.497884    0.769652     0.004505
PT3684   PT        0.769141    0.459381    0.768155     0.004505
PT3685   PT        0.767798    0.496278    0.807869     0.004505
AU3686   AU        0.808323    0.496303    0.766245     0.007504
PT3687   PT        0.152394    0.532926    0.767463     0.004505
PT3688   PT        0.193876    0.533597    0.806669     0.004505
AU3689   AU        0.190444    0.572253    0.768699     0.007504
PT3690   PT        0.230061    0.534513    0.769612     0.004505
PT3691   PT        0.230503    0.574000    0.807359     0.004505
PT3692   PT        0.266762    0.534333    0.806274     0.004505
AU3693   AU        0.266102    0.573280    0.768264     0.007504
AU3694   AU        0.307644    0.532349    0.769211     0.007504
PT3695   PT        0.306641    0.573356    0.808403     0.004505
PT3696   PT        0.343054    0.534690    0.807497     0.004505
PT3697   PT        0.344451    0.574418    0.771044     0.004505
AU3698   AU        0.381907    0.534630    0.770852     0.007504
AU3699   AU        0.382587    0.572551    0.808863     0.007504
AU3700   AU        0.424064    0.535789    0.809125     0.007504
AU3701   AU        0.424684    0.572457    0.769176     0.007504
PT3702   PT        0.460777    0.535721    0.771150     0.004505
PT3703   PT        0.460086    0.574045    0.808648     0.004505
AU3704   AU        0.499978    0.534920    0.807119     0.007504
AU3705   AU        0.499444    0.574812    0.768503     0.007504
AU3706   AU        0.537675    0.533978    0.772868     0.007504
PT3707   PT        0.537544    0.573627    0.807491     0.004505
AU3708   AU        0.577229    0.534109    0.808889     0.007504
AU3709   AU        0.578047    0.573045    0.769548     0.007504
AU3710   AU        0.616460    0.532817    0.768232     0.007504
AU3711   AU        0.615977    0.572040    0.807156     0.007504
PT3712   PT        0.655340    0.534700    0.807264     0.004505
AU3713   AU        0.656613    0.573161    0.768953     0.007504
PT3714   PT        0.692227    0.535830    0.769611     0.004505
PT3715   PT        0.693157    0.572833    0.807015     0.004505
AU3716   AU        0.730879    0.533859    0.807658     0.007504
AU3717   AU        0.730373    0.575039    0.769426     0.007504
PT3718   PT        0.768366    0.533907    0.771175     0.004505
PT3719   PT        0.154111    0.610792    0.769084     0.004505
PT3720   PT        0.191971    0.610315    0.806998     0.004505
PT3721   PT        0.191121    0.649150    0.769027     0.004505
AU3722   AU        0.228566    0.610037    0.768731     0.007504
AU3723   AU        0.231044    0.649169    0.806640     0.007504
AU3724   AU        0.268221    0.611369    0.806666     0.007504
AU3725   AU        0.268395    0.649425    0.769547     0.007504
PT3726   PT        0.305808    0.613772    0.770999     0.004505
PT3727   PT        0.305513    0.651799    0.806738     0.004505
PT3728   PT        0.345673    0.613040    0.806917     0.004505
AU3729   AU        0.345044    0.651215    0.770302     0.007504
PT3730   PT        0.383449    0.609272    0.770507     0.004505
PT3731   PT        0.383537    0.648295    0.806988     0.004505
PT3732   PT        0.423182    0.612157    0.806978     0.004505
AU3733   AU        0.420994    0.651039    0.768627     0.007504
PT3734   PT        0.460774    0.611755    0.768951     0.004505
PT3735   PT        0.461095    0.650449    0.807234     0.004505
PT3736   PT        0.497672    0.611283    0.808733     0.004505
AU3737   AU        0.499823    0.650523    0.770804     0.007504
AU3738   AU        0.540672    0.611630    0.771572     0.007504
PT3739   PT        0.537603    0.648423    0.807707     0.004505
AU3740   AU        0.578083    0.608614    0.808017     0.007504
PT3741   PT        0.577796    0.649650    0.771756     0.004505
AU3742   AU        0.616871    0.612197    0.769422     0.007504
AU3743   AU        0.617924    0.649912    0.807165     0.007504
PT3744   PT        0.655185    0.611298    0.807372     0.004505
AU3745   AU        0.652708    0.650943    0.768570     0.007504
PT3746   PT        0.692346    0.612396    0.768735     0.004505
PT3747   PT        0.691802    0.650738    0.806161     0.004505
PT3748   PT        0.729882    0.611729    0.804604     0.004505
PT3749   PT        0.730269    0.648582    0.769282     0.004505
PT3750   PT        0.768387    0.611768    0.768666     0.004505
PT3751   PT        0.230236    0.686656    0.769258     0.004505
PT3752   PT        0.267943    0.686225    0.806687     0.004505
PT3753   PT        0.268403    0.725264    0.766665     0.004505
AU3754   AU        0.305194    0.688456    0.768928     0.007504
PT3755   PT        0.303675    0.725699    0.804654     0.004505
PT3756   PT        0.344304    0.687721    0.805933     0.004505
PT3757   PT        0.345146    0.726375    0.769059     0.004505
AU3758   AU        0.382751    0.687270    0.771124     0.007504
PT3759   PT        0.384469    0.725279    0.806245     0.004505
AU3760   AU        0.423133    0.686347    0.807572     0.007504
PT3761   PT        0.421472    0.724552    0.769903     0.004505
PT3762   PT        0.461702    0.687068    0.769146     0.004505
PT3763   PT        0.460556    0.727398    0.806079     0.004505
AU3764   AU        0.500239    0.688143    0.806240     0.007504
PT3765   PT        0.498152    0.726121    0.768387     0.004505
PT3766   PT        0.537531    0.689232    0.768307     0.004505
PT3767   PT        0.535438    0.726131    0.807070     0.004505
AU3768   AU        0.573881    0.688656    0.807003     0.007504
PT3769   PT        0.575494    0.726362    0.768741     0.004505
AU3770   AU        0.613565    0.687600    0.769375     0.007504
PT3771   PT        0.615679    0.725018    0.805220     0.004505
PT3772   PT        0.655105    0.688125    0.805147     0.004505
AU3773   AU        0.653329    0.724635    0.767188     0.007504
PT3774   PT        0.692047    0.687572    0.768676     0.004505
PT3775   PT        0.305904    0.763983    0.768777     0.004505
PT3776   PT        0.385143    0.764495    0.767547     0.004505
PT3777   PT        0.423048    0.763556    0.805492     0.004505
PT3778   PT        0.422754    0.803066    0.767899     0.004505
AU3779   AU        0.459328    0.764101    0.768199     0.007504
PT3780   PT        0.497909    0.761804    0.805748     0.004505
PT3781   PT        0.498301    0.800432    0.767502     0.004505
PT3782   PT        0.536380    0.763479    0.769243     0.004505
PT3783   PT        0.612749    0.761143    0.768350     0.004505
PT3784   PT        0.421548    0.188648    0.845374     0.004505
PT3785   PT        0.499373    0.186559    0.845838     0.004505
PT3786   PT        0.267207    0.264517    0.844057     0.004505
PT3787   PT        0.345990    0.264214    0.846363     0.004505
PT3788   PT        0.386049    0.226707    0.844809     0.004505
AU3789   AU        0.383627    0.265011    0.883387     0.007504
AU3790   AU        0.421892    0.263618    0.845250     0.007504
AU3791   AU        0.461060    0.225814    0.844545     0.007504
PT3792   PT        0.461407    0.263701    0.880712     0.004505
PT3793   PT        0.500436    0.265700    0.843913     0.004505
PT3794   PT        0.536860    0.225736    0.843979     0.004505
PT3795   PT        0.538069    0.263841    0.882366     0.004505
PT3796   PT        0.576596    0.264216    0.844296     0.004505
PT3797   PT        0.653566    0.266994    0.843534     0.004505
PT3798   PT        0.268595    0.342388    0.844378     0.004505
PT3799   PT        0.309039    0.304911    0.846306     0.004505
PT3800   PT        0.305191    0.341071    0.880754     0.004505
PT3801   PT        0.346090    0.303282    0.882925     0.004505
AU3802   AU        0.346746    0.342206    0.846058     0.007504
AU3803   AU        0.383507    0.302893    0.846225     0.007504
AU3804   AU        0.385210    0.340582    0.881361     0.007504
PT3805   PT        0.423706    0.300020    0.881456     0.004505
PT3806   PT        0.423898    0.340637    0.845356     0.004505
PT3807   PT        0.461878    0.301768    0.846381     0.004505
PT3808   PT        0.460761    0.344286    0.883850     0.004505
PT3809   PT        0.502968    0.302892    0.881914     0.004505
AU3810   AU        0.501095    0.342831    0.846480     0.007504
PT3811   PT        0.539914    0.304586    0.845140     0.004505
PT3812   PT        0.539699    0.341566    0.882733     0.004505
PT3813   PT        0.575784    0.301120    0.882306     0.004505
PT3814   PT        0.577788    0.342370    0.846186     0.004505
PT3815   PT        0.614829    0.303605    0.846837     0.004505
PT3816   PT        0.613492    0.340302    0.882597     0.004505
PT3817   PT        0.651903    0.341481    0.846455     0.004505
PT3818   PT        0.191402    0.417180    0.844728     0.004505
PT3819   PT        0.229943    0.380919    0.844302     0.004505
AU3820   AU        0.268110    0.381808    0.881886     0.007504
PT3821   PT        0.268953    0.418084    0.845485     0.004505
PT3822   PT        0.304787    0.378709    0.845089     0.004505
PT3823   PT        0.304982    0.418912    0.882701     0.004505
PT3824   PT        0.344787    0.380637    0.880374     0.004505
PT3825   PT        0.345613    0.417623    0.844805     0.004505
AU3826   AU        0.385433    0.379996    0.844962     0.007504
PT3827   PT        0.382474    0.418687    0.881511     0.004505
PT3828   PT        0.422491    0.379807    0.882898     0.004505
AU3829   AU        0.422402    0.418269    0.846691     0.007504
AU3830   AU        0.460543    0.381324    0.846829     0.007504
PT3831   PT        0.463218    0.419635    0.882821     0.004505
AU3832   AU        0.500514    0.380669    0.882739     0.007504
PT3833   PT        0.499630    0.420683    0.846305     0.004505
PT3834   PT        0.539786    0.379693    0.847552     0.004505
AU3835   AU        0.538239    0.419212    0.883000     0.007504
AU3836   AU        0.578628    0.378781    0.882905     0.007504
PT3837   PT        0.577285    0.419117    0.846848     0.004505
PT3838   PT        0.615490    0.379854    0.846352     0.004505
AU3839   AU        0.618054    0.420446    0.882282     0.007504
PT3840   PT        0.651400    0.379949    0.885213     0.004505
PT3841   PT        0.653233    0.419687    0.845301     0.004505
PT3842   PT        0.735548    0.339903    0.841483     0.004505
PT3843   PT        0.728856    0.423369    0.847819     0.004505
PT3844   PT        0.191987    0.495463    0.843198     0.004505
PT3845   PT        0.229829    0.455364    0.845064     0.004505
PT3846   PT        0.266525    0.457139    0.881317     0.004505
PT3847   PT        0.268448    0.496747    0.842494     0.004505
AU3848   AU        0.304964    0.455655    0.845006     0.007504
PT3849   PT        0.304455    0.495154    0.883631     0.004505
PT3850   PT        0.345451    0.456759    0.881748     0.004505
PT3851   PT        0.342774    0.494347    0.846528     0.004505
PT3852   PT        0.384708    0.456127    0.844641     0.004505
AU3853   AU        0.384349    0.494201    0.881570     0.007504
PT3854   PT        0.424663    0.458458    0.883245     0.004505
PT3855   PT        0.423741    0.496649    0.844539     0.004505
PT3856   PT        0.461888    0.457613    0.846781     0.004505
PT3857   PT        0.461945    0.493563    0.884643     0.004505
AU3858   AU        0.499085    0.458206    0.883959     0.007504
PT3859   PT        0.498854    0.495635    0.847259     0.004505
AU3860   AU        0.539488    0.456612    0.845943     0.007504
AU3861   AU        0.537429    0.495825    0.882844     0.007504
PT3862   PT        0.576302    0.457011    0.883912     0.004505
PT3863   PT        0.577572    0.497000    0.847065     0.004505
PT3864   PT        0.617098    0.455889    0.846287     0.004505
PT3865   PT        0.617210    0.493557    0.881638     0.004505
PT3866   PT        0.655099    0.458126    0.883405     0.004505
AU3867   AU        0.652312    0.496855    0.843903     0.007504
PT3868   PT        0.691596    0.458060    0.845579     0.004505
PT3869   PT        0.729908    0.497356    0.845513     0.004505
PT3870   PT        0.230678    0.532786    0.844484     0.004505
PT3871   PT        0.270041    0.534668    0.882842     0.004505
PT3872   PT        0.268597    0.573340    0.845024     0.004505
PT3873   PT        0.305783    0.533974    0.844842     0.004505
PT3874   PT        0.306322    0.573009    0.881931     0.004505
PT3875   PT        0.343705    0.534952    0.881115     0.004505
PT3876   PT        0.345643    0.574646    0.846110     0.004505
PT3877   PT        0.383035    0.535379    0.846256     0.004505
PT3878   PT        0.383352    0.577083    0.882639     0.004505
PT3879   PT        0.423949    0.532689    0.881630     0.004505
AU3880   AU        0.421724    0.573341    0.846456     0.007504
PT3881   PT        0.461662    0.534505    0.845546     0.004505
PT3882   PT        0.462234    0.571651    0.882436     0.004505
PT3883   PT        0.501203    0.534937    0.882314     0.004505
PT3884   PT        0.499665    0.574414    0.846136     0.004505
PT3885   PT        0.538396    0.534778    0.845465     0.004505
PT3886   PT        0.539673    0.572265    0.881703     0.004505
PT3887   PT        0.577875    0.533845    0.882191     0.004505
PT3888   PT        0.577466    0.572082    0.844199     0.004505
PT3889   PT        0.614061    0.534012    0.845645     0.004505
AU3890   AU        0.613793    0.572727    0.882283     0.007504
PT3891   PT        0.653093    0.535298    0.882317     0.004505
PT3892   PT        0.650764    0.572110    0.845589     0.004505
PT3893   PT        0.691683    0.535055    0.845399     0.004505
AU3894   AU        0.267863    0.647726    0.842941     0.007504
PT3895   PT        0.306461    0.613230    0.843980     0.004505
AU3896   AU        0.344481    0.613065    0.881651     0.007504
PT3897   PT        0.344568    0.650881    0.842337     0.004505
AU3898   AU        0.382791    0.612379    0.844500     0.007504
AU3899   AU        0.382991    0.649822    0.881583     0.007504
AU3900   AU        0.419104    0.612866    0.882625     0.007504
PT3901   PT        0.421452    0.650322    0.844676     0.004505
PT3902   PT        0.459058    0.612869    0.846347     0.004505
AU3903   AU        0.461040    0.649033    0.882503     0.007504
AU3904   AU        0.501164    0.613246    0.880529     0.007504
AU3905   AU        0.500132    0.649219    0.844997     0.007504
PT3906   PT        0.538957    0.613017    0.844560     0.004505
AU3907   AU        0.536614    0.649253    0.881413     0.007504
PT3908   PT        0.574821    0.609929    0.879908     0.004505
PT3909   PT        0.575953    0.649927    0.843228     0.004505
PT3910   PT        0.613839    0.613614    0.844602     0.004505
AU3911   AU        0.654440    0.649815    0.844310     0.007504
PT3912   PT        0.385115    0.686140    0.843089     0.004505
PT3913   PT        0.424191    0.724141    0.841835     0.004505
AU3914   AU        0.461798    0.686868    0.844656     0.007504
PT3915   PT        0.499306    0.725050    0.843809     0.004505
PT3916   PT        0.535461    0.686827    0.843410     0.004505
AU3917   AU        0.423983    0.420104    0.917626     0.007504
PT3918   PT        0.461147    0.384785    0.918850     0.004505
PT3919   PT        0.498854    0.418595    0.920158     0.004505
PT3920   PT        0.386171    0.457418    0.919418     0.004505
PT3921   PT        0.425285    0.495990    0.921734     0.004505
PT3922   PT        0.461971    0.457646    0.919306     0.004505
PT3923   PT        0.500074    0.495984    0.918979     0.004505
PT3924   PT        0.536825    0.457932    0.919754     0.004505
AU3925   AU        0.461710    0.534032    0.917693     0.007504
