data_00001
_audit_creation_method   'DISCUS'

_data_chemical_name_common 'Au.cell: Pearson 85'

_cell_length_a             57.1046
_cell_length_b             61.1835
_cell_length_c             57.1046
_cell_angle_alpha     90.0000
_cell_angle_beta      90.0000
_cell_angle_gamma     90.0000

_symmetry_space_group_name_H-M   'P1              '

loop_
_atom_site_label
_atom_site_symbol
_atom_site_fract_x
_atom_site_fract_y
_atom_site_fract_z
_atom_site_u_iso_or_equiv
PT1   PT        0.393565    0.297926    0.071061     0.004505
AU2   AU        0.462681    0.292235    0.070874     0.007504
AU3   AU        0.532551    0.296025    0.070055     0.007504
AU4   AU        0.324698    0.361374    0.076325     0.007504
AU5   AU        0.358365    0.330405    0.076315     0.007504
PT6   PT        0.394904    0.360785    0.076257     0.004505
AU7   AU        0.432029    0.327825    0.073161     0.007504
PT8   PT        0.465760    0.363154    0.076110     0.004505
AU9   AU        0.497524    0.329435    0.071912     0.007504
AU10   AU        0.536045    0.359929    0.076876     0.007504
PT11   PT        0.570166    0.328169    0.071611     0.004505
PT12   PT        0.607049    0.362764    0.072104     0.004505
AU13   AU        0.248457    0.393692    0.031898     0.007504
AU14   AU        0.325299    0.426089    0.073729     0.007504
PT15   PT        0.360933    0.393413    0.075555     0.004505
AU16   AU        0.393569    0.429459    0.072649     0.007504
AU17   AU        0.428385    0.393144    0.075551     0.007504
AU18   AU        0.455703    0.422460    0.000714     0.007504
PT19   PT        0.460814    0.389904    0.033982     0.004505
AU20   AU        0.463147    0.423871    0.072867     0.007504
PT21   PT        0.501279    0.392918    0.070813     0.004505
AU22   AU        0.497257    0.421504    0.032443     0.007504
AU23   AU        0.534391    0.425800    0.075291     0.007504
PT24   PT        0.568635    0.395027    0.071219     0.004505
AU25   AU        0.603678    0.431318    0.070121     0.007504
AU26   AU        0.635276    0.427884    0.031630     0.007504
PT27   PT        0.291090    0.456783    0.071226     0.004505
AU28   AU        0.320701    0.493557    0.072206     0.007504
AU29   AU        0.357963    0.460083    0.073153     0.007504
PT30   PT        0.396074    0.458852    0.040603     0.004505
PT31   PT        0.393027    0.492418    0.074037     0.004505
PT32   PT        0.430444    0.458993    0.076290     0.004505
AU33   AU        0.427209    0.493282    0.032937     0.007504
AU34   AU        0.460841    0.458627    0.034401     0.007504
AU35   AU        0.462369    0.494058    0.069773     0.007504
AU36   AU        0.498363    0.459569    0.071274     0.007504
AU37   AU        0.495416    0.493105    0.035456     0.007504
PT38   PT        0.532112    0.454735    0.035750     0.004505
PT39   PT        0.532384    0.491476    0.068559     0.004505
AU40   AU        0.567006    0.460549    0.072467     0.007504
AU41   AU        0.602847    0.493808    0.068605     0.007504
PT42   PT        0.638064    0.462174    0.066020     0.004505
AU43   AU        0.284697    0.525758    0.069231     0.007504
AU44   AU        0.319793    0.555176    0.073849     0.007504
PT45   PT        0.356201    0.523684    0.070696     0.004505
AU46   AU        0.391134    0.556107    0.071778     0.007504
AU47   AU        0.428451    0.525382    0.071296     0.007504
AU48   AU        0.460632    0.526311    0.032783     0.007504
AU49   AU        0.465954    0.555739    0.071121     0.007504
AU50   AU        0.497381    0.525870    0.072901     0.007504
AU51   AU        0.533565    0.558936    0.073442     0.007504
PT52   PT        0.565211    0.524189    0.070733     0.004505
AU53   AU        0.603320    0.557650    0.071865     0.007504
PT54   PT        0.638440    0.525854    0.070626     0.004505
PT55   PT        0.353308    0.590240    0.074320     0.004505
AU56   AU        0.391049    0.621826    0.072296     0.007504
AU57   AU        0.430671    0.590030    0.069530     0.007504
AU58   AU        0.464169    0.627851    0.073235     0.007504
AU59   AU        0.497905    0.589526    0.067857     0.007504
PT60   PT        0.501386    0.656588    0.070907     0.004505
PT61   PT        0.569282    0.591093    0.076941     0.004505
AU62   AU        0.320210    0.229786    0.140376     0.007504
AU63   AU        0.367341    0.208279    0.137171     0.007504
AU64   AU        0.462742    0.162335    0.139412     0.007504
AU65   AU        0.429530    0.228395    0.109247     0.007504
PT66   PT        0.464474    0.232432    0.145699     0.004505
AU67   AU        0.498930    0.196401    0.137832     0.007504
AU68   AU        0.500243    0.231736    0.102511     0.007504
AU69   AU        0.533932    0.228477    0.139363     0.007504
AU70   AU        0.604771    0.227593    0.141623     0.007504
AU71   AU        0.252500    0.296314    0.137982     0.007504
AU72   AU        0.284518    0.261963    0.143098     0.007504
AU73   AU        0.291179    0.294061    0.105190     0.007504
AU74   AU        0.321192    0.294096    0.143805     0.007504
AU75   AU        0.360286    0.259921    0.141368     0.007504
PT76   PT        0.359956    0.295744    0.108891     0.004505
AU77   AU        0.396703    0.262385    0.105517     0.007504
PT78   PT        0.395995    0.295712    0.145344     0.004505
PT79   PT        0.429196    0.262528    0.145840     0.004505
AU80   AU        0.428844    0.295875    0.108359     0.007504
AU81   AU        0.464005    0.261815    0.105391     0.007504
PT82   PT        0.465150    0.296060    0.144898     0.004505
AU83   AU        0.500754    0.261982    0.142727     0.007504
AU84   AU        0.499969    0.295235    0.109703     0.007504
PT85   PT        0.533397    0.263121    0.107389     0.004505
PT86   PT        0.537327    0.294670    0.145233     0.004505
AU87   AU        0.569205    0.260941    0.143753     0.007504
PT88   PT        0.568058    0.295947    0.106950     0.004505
PT89   PT        0.602780    0.294911    0.146520     0.004505
PT90   PT        0.640810    0.262760    0.145133     0.004505
PT91   PT        0.643311    0.299294    0.107437     0.004505
PT92   PT        0.674305    0.294976    0.146410     0.004505
AU93   AU        0.215466    0.327728    0.142760     0.007504
AU94   AU        0.253083    0.361953    0.148170     0.007504
AU95   AU        0.285982    0.330025    0.142787     0.007504
PT96   PT        0.290301    0.361711    0.111178     0.004505
PT97   PT        0.324662    0.328404    0.112213     0.004505
AU98   AU        0.325581    0.361315    0.145435     0.007504
PT99   PT        0.361096    0.327731    0.147422     0.004505
PT100   PT        0.362248    0.360841    0.111354     0.004505
AU101   AU        0.397333    0.329527    0.109585     0.007504
PT102   PT        0.396964    0.362699    0.145692     0.004505
AU103   AU        0.431189    0.328902    0.145339     0.007504
AU104   AU        0.431305    0.359031    0.110998     0.007504
AU105   AU        0.465559    0.329362    0.107680     0.007504
AU106   AU        0.465523    0.361849    0.144487     0.007504
PT107   PT        0.500556    0.327621    0.147502     0.004505
PT108   PT        0.500520    0.360806    0.113125     0.004505
AU109   AU        0.535550    0.328201    0.109823     0.007504
PT110   PT        0.537183    0.362021    0.147017     0.004505
AU111   AU        0.570457    0.329703    0.148789     0.007504
AU112   AU        0.571346    0.362121    0.110407     0.007504
AU113   AU        0.605038    0.328842    0.108884     0.007504
AU114   AU        0.606280    0.361143    0.147316     0.007504
PT115   PT        0.638436    0.327063    0.147326     0.004505
AU116   AU        0.640706    0.359642    0.112512     0.007504
AU117   AU        0.675036    0.361571    0.147370     0.007504
AU118   AU        0.710799    0.326792    0.147258     0.007504
PT119   PT        0.179009    0.425289    0.142867     0.004505
PT120   PT        0.215868    0.391321    0.145854     0.004505
PT121   PT        0.210766    0.456035    0.073769     0.004505
PT122   PT        0.256251    0.392252    0.110793     0.004505
AU123   AU        0.249908    0.423675    0.143913     0.007504
PT124   PT        0.291191    0.394203    0.147127     0.004505
AU125   AU        0.290585    0.424986    0.108162     0.007504
PT126   PT        0.327240    0.393625    0.109923     0.004505
AU127   AU        0.324948    0.425506    0.146243     0.007504
PT128   PT        0.361735    0.394695    0.146834     0.004505
AU129   AU        0.359539    0.427590    0.110641     0.007504
PT130   PT        0.393393    0.396667    0.108276     0.004505
AU131   AU        0.395617    0.427763    0.146272     0.007504
AU132   AU        0.429696    0.393179    0.143925     0.007504
PT133   PT        0.429802    0.425983    0.111527     0.004505
AU134   AU        0.465892    0.395241    0.111072     0.007504
PT135   PT        0.466033    0.424788    0.147818     0.004505
PT136   PT        0.501721    0.394657    0.145850     0.004505
PT137   PT        0.500166    0.425724    0.109670     0.004505
PT138   PT        0.537278    0.394552    0.111177     0.004505
PT139   PT        0.536438    0.427780    0.147977     0.004505
AU140   AU        0.570175    0.394985    0.145945     0.007504
AU141   AU        0.569857    0.427752    0.106163     0.007504
PT142   PT        0.602922    0.395336    0.108148     0.004505
PT143   PT        0.604557    0.427722    0.144484     0.004505
AU144   AU        0.640047    0.395681    0.143518     0.007504
PT145   PT        0.638339    0.426616    0.107208     0.004505
AU146   AU        0.676722    0.394764    0.105644     0.007504
PT147   PT        0.673584    0.429581    0.145096     0.004505
AU148   AU        0.711531    0.393984    0.148420     0.007504
AU149   AU        0.742486    0.460311    0.098613     0.007504
PT150   PT        0.754477    0.423911    0.146971     0.004505
AU151   AU        0.176670    0.489151    0.140297     0.007504
AU152   AU        0.215888    0.459499    0.141364     0.007504
AU153   AU        0.214984    0.492628    0.107620     0.007504
PT154   PT        0.252861    0.457457    0.103256     0.004505
AU155   AU        0.250962    0.492356    0.140937     0.007504
AU156   AU        0.285787    0.457300    0.141423     0.007504
AU157   AU        0.284590    0.492846    0.104937     0.007504
AU158   AU        0.322092    0.459948    0.108625     0.007504
AU159   AU        0.323517    0.490550    0.145107     0.007504
AU160   AU        0.359531    0.458081    0.145564     0.007504
AU161   AU        0.358973    0.493771    0.110485     0.007504
AU162   AU        0.394230    0.460758    0.111343     0.007504
AU163   AU        0.394083    0.491939    0.146240     0.007504
AU164   AU        0.428888    0.460503    0.146840     0.007504
AU165   AU        0.428278    0.492310    0.107681     0.007504
PT166   PT        0.464125    0.457202    0.110916     0.004505
PT167   PT        0.464287    0.490908    0.143679     0.004505
AU168   AU        0.499366    0.459267    0.145383     0.007504
AU169   AU        0.500834    0.492214    0.108213     0.007504
AU170   AU        0.535137    0.458119    0.110908     0.007504
AU171   AU        0.536835    0.493117    0.146647     0.007504
AU172   AU        0.571396    0.459226    0.144242     0.007504
PT173   PT        0.567574    0.495423    0.107541     0.004505
AU174   AU        0.605300    0.461977    0.107905     0.007504
PT175   PT        0.603042    0.493952    0.143529     0.004505
AU176   AU        0.639567    0.460148    0.144191     0.007504
PT177   PT        0.640099    0.493645    0.106387     0.004505
PT178   PT        0.674485    0.459750    0.104820     0.004505
PT179   PT        0.674413    0.493627    0.139966     0.004505
AU180   AU        0.710540    0.460566    0.140665     0.007504
PT181   PT        0.707261    0.493085    0.101856     0.004505
PT182   PT        0.744754    0.491215    0.136723     0.004505
PT183   PT        0.213469    0.525960    0.140892     0.004505
AU184   AU        0.251427    0.526424    0.107227     0.007504
AU185   AU        0.250883    0.560560    0.141588     0.007504
AU186   AU        0.287746    0.523525    0.145071     0.007504
AU187   AU        0.286986    0.556051    0.108471     0.007504
PT188   PT        0.320522    0.522708    0.107237     0.004505
PT189   PT        0.321825    0.557788    0.142681     0.004505
PT190   PT        0.359161    0.524822    0.145917     0.004505
AU191   AU        0.356553    0.555761    0.106626     0.007504
PT192   PT        0.395061    0.527262    0.108591     0.004505
PT193   PT        0.391397    0.557965    0.143267     0.004505
PT194   PT        0.426666    0.525310    0.143642     0.004505
PT195   PT        0.429637    0.560476    0.104813     0.004505
AU196   AU        0.464544    0.524098    0.109907     0.007504
AU197   AU        0.465466    0.556644    0.144736     0.007504
PT198   PT        0.500887    0.522665    0.147210     0.004505
PT199   PT        0.501546    0.559968    0.107868     0.004505
PT200   PT        0.533711    0.526896    0.111254     0.004505
AU201   AU        0.531597    0.558292    0.145764     0.007504
PT202   PT        0.568834    0.526511    0.145932     0.004505
AU203   AU        0.569403    0.557028    0.109897     0.007504
AU204   AU        0.604418    0.525129    0.106584     0.007504
AU205   AU        0.605294    0.555201    0.146614     0.007504
PT206   PT        0.639033    0.524447    0.146362     0.004505
PT207   PT        0.638726    0.557080    0.109087     0.004505
PT208   PT        0.674571    0.527140    0.106575     0.004505
PT209   PT        0.671962    0.558980    0.140601     0.004505
AU210   AU        0.752614    0.506577    0.090652     0.007504
AU211   AU        0.215953    0.591980    0.142369     0.007504
PT212   PT        0.249086    0.625021    0.141179     0.004505
AU213   AU        0.288020    0.591006    0.144850     0.007504
PT214   PT        0.287430    0.627840    0.107498     0.004505
PT215   PT        0.318672    0.589982    0.108478     0.004505
AU216   AU        0.322807    0.624791    0.143026     0.007504
PT217   PT        0.357784    0.589035    0.143743     0.004505
AU218   AU        0.355317    0.623646    0.107177     0.007504
PT219   PT        0.393206    0.589926    0.106268     0.004505
PT220   PT        0.389565    0.624428    0.140555     0.004505
AU221   AU        0.428037    0.590254    0.142732     0.007504
AU222   AU        0.428044    0.623975    0.105363     0.007504
AU223   AU        0.463155    0.591658    0.108586     0.007504
AU224   AU        0.462534    0.627019    0.143424     0.007504
AU225   AU        0.500249    0.591435    0.144134     0.007504
PT226   PT        0.499098    0.628467    0.110192     0.004505
PT227   PT        0.533074    0.595034    0.106993     0.004505
AU228   AU        0.534716    0.626355    0.143732     0.007504
PT229   PT        0.567683    0.590504    0.144207     0.004505
AU230   AU        0.566513    0.627036    0.107565     0.007504
AU231   AU        0.604339    0.590388    0.111061     0.007504
AU232   AU        0.603251    0.627467    0.141604     0.007504
AU233   AU        0.637574    0.594415    0.143514     0.007504
PT234   PT        0.636262    0.628667    0.105787     0.004505
PT235   PT        0.673610    0.623568    0.140517     0.004505
AU236   AU        0.708852    0.589940    0.139008     0.007504
AU237   AU        0.288041    0.658763    0.144637     0.007504
AU238   AU        0.323388    0.691082    0.143940     0.007504
AU239   AU        0.355698    0.656414    0.142932     0.007504
AU240   AU        0.390172    0.657167    0.108391     0.007504
AU241   AU        0.390306    0.691163    0.141019     0.007504
PT242   PT        0.427559    0.656293    0.141042     0.004505
PT243   PT        0.427045    0.689585    0.110466     0.004505
AU244   AU        0.464395    0.660208    0.108211     0.007504
PT245   PT        0.464012    0.693236    0.142936     0.004505
AU246   AU        0.498536    0.660140    0.143548     0.007504
PT247   PT        0.499483    0.694550    0.103755     0.004505
AU248   AU        0.531254    0.660797    0.108976     0.007504
PT249   PT        0.533021    0.694763    0.143423     0.004505
AU250   AU        0.568362    0.660165    0.142263     0.007504
PT251   PT        0.602130    0.691443    0.142517     0.004505
PT252   PT        0.641866    0.661980    0.140380     0.004505
AU253   AU        0.425260    0.723683    0.143307     0.007504
PT254   PT        0.498800    0.725291    0.142653     0.004505
AU255   AU        0.325737    0.157736    0.212612     0.007504
PT256   PT        0.396219    0.166030    0.213794     0.004505
AU257   AU        0.428528    0.130657    0.213428     0.007504
AU258   AU        0.428022    0.160096    0.176770     0.007504
AU259   AU        0.464995    0.163021    0.213101     0.007504
AU260   AU        0.500431    0.129247    0.212422     0.007504
AU261   AU        0.498295    0.161986    0.175854     0.007504
AU262   AU        0.537820    0.161553    0.213171     0.007504
AU263   AU        0.606049    0.162348    0.215519     0.007504
AU264   AU        0.255166    0.229075    0.212166     0.007504
PT265   PT        0.290993    0.194248    0.210268     0.004505
AU266   AU        0.290813    0.228844    0.179361     0.007504
PT267   PT        0.326344    0.196916    0.172784     0.004505
AU268   AU        0.322373    0.229861    0.213176     0.007504
PT269   PT        0.356208    0.196107    0.212150     0.004505
AU270   AU        0.360399    0.230275    0.178961     0.007504
AU271   AU        0.395668    0.198202    0.177983     0.007504
PT272   PT        0.394714    0.229602    0.214493     0.004505
AU273   AU        0.432865    0.197026    0.213730     0.007504
AU274   AU        0.429380    0.230818    0.179385     0.007504
AU275   AU        0.464991    0.195742    0.176566     0.007504
AU276   AU        0.466982    0.227000    0.215233     0.007504
AU277   AU        0.501290    0.195643    0.212283     0.007504
AU278   AU        0.501718    0.228649    0.178055     0.007504
AU279   AU        0.534214    0.194979    0.175270     0.007504
PT280   PT        0.534553    0.230101    0.218943     0.004505
AU281   AU        0.569097    0.196779    0.213568     0.007504
AU282   AU        0.567648    0.229890    0.179936     0.007504
PT283   PT        0.606703    0.198511    0.178707     0.004505
AU284   AU        0.604429    0.229943    0.216972     0.007504
AU285   AU        0.641859    0.196058    0.216251     0.007504
PT286   PT        0.640550    0.230211    0.182318     0.004505
PT287   PT        0.677130    0.229666    0.214901     0.004505
AU288   AU        0.179845    0.294865    0.213149     0.007504
AU289   AU        0.218151    0.263047    0.214909     0.007504
AU290   AU        0.210583    0.293928    0.177993     0.007504
PT291   PT        0.214276    0.265822    0.138659     0.004505
AU292   AU        0.253782    0.295344    0.217306     0.007504
AU293   AU        0.288415    0.263280    0.212382     0.007504
AU294   AU        0.287863    0.296713    0.179842     0.007504
AU295   AU        0.322449    0.263528    0.177920     0.007504
AU296   AU        0.324606    0.295823    0.215463     0.007504
AU297   AU        0.359889    0.261458    0.214472     0.007504
AU298   AU        0.360240    0.295663    0.181123     0.007504
PT299   PT        0.394736    0.261344    0.179028     0.004505
PT300   PT        0.394774    0.292839    0.215774     0.004505
PT301   PT        0.432311    0.263317    0.215017     0.004505
PT302   PT        0.431266    0.295106    0.182312     0.004505
AU303   AU        0.465687    0.260914    0.181298     0.007504
AU304   AU        0.465868    0.295364    0.215556     0.007504
AU305   AU        0.499747    0.262571    0.216679     0.007504
PT306   PT        0.499449    0.295196    0.179840     0.004505
PT307   PT        0.534635    0.262284    0.182672     0.004505
AU308   AU        0.536134    0.296144    0.215834     0.007504
AU309   AU        0.571038    0.262921    0.217097     0.007504
PT310   PT        0.570548    0.296997    0.182883     0.004505
PT311   PT        0.604898    0.262783    0.181710     0.004505
PT312   PT        0.605442    0.296029    0.218883     0.004505
PT313   PT        0.640360    0.263169    0.217866     0.004505
AU314   AU        0.640238    0.295464    0.182757     0.007504
AU315   AU        0.675325    0.263934    0.183625     0.007504
AU316   AU        0.676933    0.295039    0.217083     0.007504
PT317   PT        0.711408    0.261746    0.216986     0.004505
AU318   AU        0.711771    0.296463    0.180973     0.007504
AU319   AU        0.750625    0.294038    0.216946     0.007504
PT320   PT        0.141695    0.324126    0.215701     0.004505
PT321   PT        0.176837    0.328760    0.177534     0.004505
AU322   AU        0.176894    0.360842    0.213726     0.007504
PT323   PT        0.214715    0.326416    0.214603     0.004505
AU324   AU        0.216590    0.360709    0.181713     0.007504
PT325   PT        0.249069    0.326087    0.178749     0.004505
PT326   PT        0.253812    0.360451    0.215903     0.004505
AU327   AU        0.288169    0.327462    0.215628     0.007504
AU328   AU        0.291148    0.359562    0.179995     0.007504
AU329   AU        0.324331    0.326913    0.179541     0.007504
PT330   PT        0.326284    0.360979    0.213773     0.004505
PT331   PT        0.360133    0.328771    0.215027     0.004505
AU332   AU        0.361391    0.359919    0.180256     0.007504
PT333   PT        0.396851    0.327199    0.180639     0.004505
PT334   PT        0.396621    0.360661    0.214728     0.004505
PT335   PT        0.429451    0.328045    0.215708     0.004505
PT336   PT        0.430875    0.361211    0.180002     0.004505
AU337   AU        0.465278    0.327325    0.180826     0.007504
PT338   PT        0.463134    0.359563    0.215124     0.004505
PT339   PT        0.500841    0.329089    0.217086     0.004505
AU340   AU        0.500815    0.361945    0.180021     0.007504
AU341   AU        0.536166    0.327458    0.181727     0.007504
AU342   AU        0.535016    0.361005    0.215967     0.007504
AU343   AU        0.570599    0.328529    0.217022     0.007504
AU344   AU        0.571510    0.361001    0.182398     0.007504
AU345   AU        0.606003    0.327479    0.183564     0.007504
PT346   PT        0.607875    0.360324    0.217353     0.004505
PT347   PT        0.641042    0.327262    0.216368     0.004505
PT348   PT        0.640558    0.360648    0.183151     0.004505
AU349   AU        0.675914    0.327585    0.182872     0.007504
PT350   PT        0.673993    0.361956    0.217799     0.004505
AU351   AU        0.711475    0.327469    0.217739     0.007504
PT352   PT        0.708719    0.360653    0.182878     0.004505
AU353   AU        0.746518    0.327737    0.181464     0.007504
PT354   PT        0.746344    0.359853    0.216864     0.004505
AU355   AU        0.783250    0.325087    0.210882     0.007504
AU356   AU        0.108315    0.425379    0.209898     0.007504
PT357   PT        0.142854    0.392955    0.214925     0.004505
AU358   AU        0.143691    0.424714    0.176748     0.007504
AU359   AU        0.175408    0.391502    0.176315     0.007504
AU360   AU        0.179570    0.425789    0.211368     0.007504
AU361   AU        0.214925    0.392692    0.216387     0.007504
PT362   PT        0.213800    0.426289    0.177435     0.004505
PT363   PT        0.253355    0.393921    0.181144     0.004505
AU364   AU        0.254284    0.425633    0.215727     0.007504
PT365   PT        0.290196    0.393601    0.215002     0.004505
AU366   AU        0.289242    0.426054    0.180538     0.007504
PT367   PT        0.324496    0.394003    0.180962     0.004505
AU368   AU        0.326408    0.425280    0.214884     0.007504
PT369   PT        0.359589    0.393912    0.217109     0.004505
PT370   PT        0.359959    0.426101    0.180199     0.004505
AU371   AU        0.395509    0.394781    0.182162     0.007504
PT372   PT        0.394110    0.427567    0.214561     0.004505
PT373   PT        0.431546    0.394407    0.214092     0.004505
PT374   PT        0.428906    0.427091    0.180984     0.004505
PT375   PT        0.465630    0.393481    0.179515     0.004505
PT376   PT        0.465822    0.426280    0.215635     0.004505
PT377   PT        0.499350    0.393752    0.215503     0.004505
PT378   PT        0.500388    0.428089    0.181283     0.004505
PT379   PT        0.536062    0.394087    0.181893     0.004505
PT380   PT        0.534409    0.427487    0.217015     0.004505
AU381   AU        0.569040    0.392851    0.216043     0.007504
PT382   PT        0.570154    0.427239    0.183339     0.004505
AU383   AU        0.607329    0.394097    0.182036     0.007504
AU384   AU        0.604561    0.426886    0.216313     0.007504
PT385   PT        0.639694    0.395608    0.217338     0.004505
PT386   PT        0.640501    0.425046    0.182279     0.004505
AU387   AU        0.674158    0.394027    0.181415     0.007504
PT388   PT        0.675771    0.426389    0.218202     0.004505
PT389   PT        0.709559    0.396234    0.217026     0.004505
PT390   PT        0.711644    0.426861    0.182372     0.004505
PT391   PT        0.746842    0.393415    0.182673     0.004505
PT392   PT        0.747216    0.426692    0.217971     0.004505
PT393   PT        0.786468    0.396104    0.216405     0.004505
AU394   AU        0.787936    0.427988    0.181075     0.007504
PT395   PT        0.823377    0.426328    0.213948     0.004505
AU396   AU        0.106111    0.492029    0.212426     0.007504
AU397   AU        0.144275    0.458741    0.212026     0.007504
AU398   AU        0.143490    0.494711    0.175887     0.007504
PT399   PT        0.178342    0.458979    0.175601     0.004505
AU400   AU        0.180112    0.492132    0.212174     0.007504
AU401   AU        0.216422    0.460806    0.212001     0.007504
PT402   PT        0.214062    0.490120    0.175119     0.004505
AU403   AU        0.252014    0.456407    0.176443     0.007504
AU404   AU        0.250269    0.491184    0.212364     0.007504
AU405   AU        0.288462    0.458410    0.214604     0.007504
AU406   AU        0.286500    0.489739    0.181105     0.007504
AU407   AU        0.325587    0.459207    0.180186     0.007504
AU408   AU        0.323702    0.491676    0.214451     0.007504
PT409   PT        0.359519    0.459244    0.215720     0.004505
PT410   PT        0.357577    0.493594    0.181031     0.004505
AU411   AU        0.395166    0.460399    0.180101     0.007504
AU412   AU        0.395743    0.492300    0.214433     0.007504
PT413   PT        0.430177    0.460299    0.216914     0.004505
AU414   AU        0.429655    0.491327    0.178868     0.007504
AU415   AU        0.464569    0.458150    0.180838     0.007504
AU416   AU        0.464636    0.492216    0.213925     0.007504
PT417   PT        0.500298    0.459515    0.216002     0.004505
PT418   PT        0.498778    0.491212    0.182000     0.004505
AU419   AU        0.534302    0.459297    0.181857     0.007504
PT420   PT        0.533978    0.491315    0.214467     0.004505
PT421   PT        0.568899    0.460705    0.217182     0.004505
PT422   PT        0.572210    0.491207    0.179160     0.004505
PT423   PT        0.606804    0.459107    0.179956     0.004505
PT424   PT        0.605052    0.491974    0.218705     0.004505
PT425   PT        0.638689    0.460671    0.218146     0.004505
PT426   PT        0.639457    0.493292    0.180773     0.004505
PT427   PT        0.674920    0.459764    0.183246     0.004505
AU428   AU        0.674961    0.493345    0.216030     0.007504
AU429   AU        0.709685    0.460858    0.215886     0.007504
PT430   PT        0.711875    0.492770    0.176031     0.004505
PT431   PT        0.747230    0.460027    0.177269     0.004505
AU432   AU        0.748431    0.491326    0.215028     0.007504
AU433   AU        0.786365    0.463989    0.211647     0.007504
AU434   AU        0.821618    0.523622    0.177011     0.007504
AU435   AU        0.821731    0.493621    0.216851     0.007504
AU436   AU        0.145449    0.527650    0.212264     0.007504
AU437   AU        0.180263    0.525464    0.175992     0.007504
AU438   AU        0.181437    0.556945    0.213974     0.007504
AU439   AU        0.216003    0.523291    0.213635     0.007504
AU440   AU        0.216386    0.555392    0.177185     0.007504
AU441   AU        0.249775    0.523289    0.176657     0.007504
PT442   PT        0.252037    0.555743    0.215624     0.004505
AU443   AU        0.286098    0.523513    0.214577     0.007504
PT444   PT        0.284542    0.556846    0.179233     0.004505
AU445   AU        0.321561    0.523550    0.179415     0.007504
AU446   AU        0.320826    0.557265    0.212584     0.007504
PT447   PT        0.358537    0.525472    0.214880     0.004505
AU448   AU        0.357694    0.556593    0.178971     0.007504
AU449   AU        0.395877    0.524932    0.181020     0.007504
AU450   AU        0.395481    0.558214    0.215591     0.007504
AU451   AU        0.431421    0.524632    0.213883     0.007504
PT452   PT        0.432099    0.558176    0.178103     0.004505
AU453   AU        0.462999    0.524141    0.178381     0.007504
PT454   PT        0.466034    0.557472    0.217825     0.004505
PT455   PT        0.498305    0.524907    0.214615     0.004505
PT456   PT        0.499053    0.558232    0.181693     0.004505
PT457   PT        0.534158    0.522945    0.180977     0.004505
PT458   PT        0.533237    0.556567    0.217891     0.004505
PT459   PT        0.570386    0.524924    0.217053     0.004505
PT460   PT        0.569440    0.557743    0.181863     0.004505
PT461   PT        0.605291    0.523615    0.182201     0.004505
AU462   AU        0.606839    0.558019    0.215427     0.007504
AU463   AU        0.639345    0.526300    0.217004     0.007504
AU464   AU        0.639726    0.558878    0.181611     0.007504
AU465   AU        0.674309    0.526624    0.180550     0.007504
PT466   PT        0.676711    0.558147    0.215289     0.004505
PT467   PT        0.711511    0.522726    0.214456     0.004505
PT468   PT        0.710428    0.556902    0.176117     0.004505
AU469   AU        0.747002    0.524212    0.177820     0.007504
PT470   PT        0.747341    0.557966    0.211558     0.004505
AU471   AU        0.783534    0.524533    0.211745     0.007504
PT472   PT        0.144926    0.588842    0.212362     0.004505
PT473   PT        0.182909    0.590570    0.177838     0.004505
PT474   PT        0.178497    0.623965    0.211742     0.004505
PT475   PT        0.219098    0.591093    0.215458     0.004505
PT476   PT        0.217078    0.626146    0.179350     0.004505
AU477   AU        0.252348    0.593062    0.179899     0.007504
AU478   AU        0.252427    0.624598    0.214054     0.007504
PT479   PT        0.287251    0.591201    0.213557     0.004505
AU480   AU        0.286009    0.626687    0.180230     0.007504
AU481   AU        0.321744    0.592127    0.178630     0.007504
PT482   PT        0.323761    0.623671    0.214656     0.004505
AU483   AU        0.357498    0.588110    0.214879     0.007504
AU484   AU        0.357229    0.623894    0.179382     0.007504
PT485   PT        0.393454    0.588230    0.177977     0.004505
AU486   AU        0.393053    0.622639    0.214115     0.007504
AU487   AU        0.429877    0.590147    0.216973     0.007504
AU488   AU        0.427311    0.622258    0.175478     0.007504
AU489   AU        0.463186    0.591496    0.181229     0.007504
PT490   PT        0.465849    0.623204    0.216970     0.004505
AU491   AU        0.500095    0.590719    0.215874     0.007504
PT492   PT        0.499805    0.625665    0.181598     0.004505
AU493   AU        0.534565    0.590411    0.182296     0.007504
PT494   PT        0.536065    0.623905    0.215726     0.004505
PT495   PT        0.569529    0.591693    0.216847     0.004505
PT496   PT        0.569994    0.623079    0.180687     0.004505
PT497   PT        0.605412    0.591274    0.180247     0.004505
AU498   AU        0.606011    0.621608    0.215088     0.007504
PT499   PT        0.640433    0.588467    0.218485     0.004505
PT500   PT        0.637318    0.625584    0.178833     0.004505
AU501   AU        0.674469    0.591820    0.175562     0.007504
AU502   AU        0.675803    0.623243    0.212379     0.007504
PT503   PT        0.709953    0.590757    0.211871     0.004505
AU504   AU        0.707009    0.626060    0.175303     0.007504
AU505   AU        0.744433    0.592908    0.174362     0.007504
PT506   PT        0.744513    0.627264    0.214946     0.004505
PT507   PT        0.780045    0.594694    0.212859     0.004505
AU508   AU        0.213621    0.656395    0.213749     0.007504
AU509   AU        0.251125    0.659528    0.179185     0.007504
PT510   PT        0.250592    0.695324    0.212890     0.004505
AU511   AU        0.284646    0.661464    0.213151     0.007504
AU512   AU        0.285556    0.693560    0.177426     0.007504
AU513   AU        0.323458    0.658846    0.179898     0.007504
PT514   PT        0.323330    0.689224    0.214100     0.004505
AU515   AU        0.357693    0.656168    0.215482     0.007504
PT516   PT        0.358249    0.690566    0.177355     0.004505
AU517   AU        0.391391    0.656722    0.178181     0.007504
AU518   AU        0.393731    0.688184    0.216057     0.007504
PT519   PT        0.427059    0.654634    0.215306     0.004505
AU520   AU        0.429209    0.689523    0.182115     0.007504
PT521   PT        0.463756    0.658413    0.180124     0.004505
AU522   AU        0.466108    0.688983    0.216686     0.007504
AU523   AU        0.501202    0.657799    0.214066     0.007504
AU524   AU        0.501845    0.693075    0.179129     0.007504
PT525   PT        0.534211    0.659453    0.177324     0.004505
AU526   AU        0.534064    0.691435    0.214986     0.007504
AU527   AU        0.569580    0.655027    0.216670     0.007504
PT528   PT        0.568952    0.691644    0.181944     0.004505
AU529   AU        0.602266    0.657749    0.181122     0.007504
AU530   AU        0.608359    0.692955    0.214260     0.007504
AU531   AU        0.639903    0.657090    0.216576     0.007504
PT532   PT        0.637655    0.691115    0.175620     0.004505
PT533   PT        0.673297    0.658883    0.177906     0.004505
AU534   AU        0.672877    0.693427    0.211590     0.007504
AU535   AU        0.707962    0.660614    0.214508     0.007504
PT536   PT        0.289142    0.725306    0.213251     0.004505
PT537   PT        0.322609    0.723255    0.178716     0.004505
AU538   AU        0.323866    0.758763    0.213805     0.007504
PT539   PT        0.360391    0.721324    0.214877     0.004505
AU540   AU        0.395319    0.722858    0.182863     0.007504
AU541   AU        0.394932    0.756072    0.215785     0.007504
AU542   AU        0.431153    0.724113    0.215504     0.007504
AU543   AU        0.425768    0.758497    0.178060     0.007504
AU544   AU        0.462403    0.726123    0.179149     0.007504
AU545   AU        0.466931    0.760706    0.214110     0.007504
AU546   AU        0.499354    0.725075    0.213154     0.007504
PT547   PT        0.500705    0.759581    0.176538     0.004505
AU548   AU        0.535453    0.724519    0.180996     0.007504
PT549   PT        0.535074    0.758150    0.215641     0.004505
AU550   AU        0.571192    0.726198    0.216124     0.007504
PT551   PT        0.603016    0.726391    0.176421     0.004505
AU552   AU        0.604631    0.760290    0.209980     0.007504
PT553   PT        0.641071    0.796598    0.214666     0.004505
AU554   AU        0.428053    0.791550    0.210765     0.007504
PT555   PT        0.499202    0.795450    0.212028     0.004505
AU556   AU        0.393828    0.095776    0.284583     0.007504
PT557   PT        0.461279    0.094548    0.281645     0.004505
PT558   PT        0.533689    0.093214    0.281562     0.004505
PT559   PT        0.256328    0.163794    0.283360     0.004505
AU560   AU        0.289566    0.130701    0.279814     0.007504
PT561   PT        0.289623    0.161026    0.245727     0.004505
AU562   AU        0.322752    0.162405    0.286661     0.007504
PT563   PT        0.359451    0.132392    0.285736     0.004505
AU564   AU        0.357580    0.163999    0.249353     0.007504
PT565   PT        0.394368    0.132194    0.251354     0.004505
AU566   AU        0.394047    0.164707    0.286124     0.007504
PT567   PT        0.430245    0.128145    0.284582     0.004505
AU568   AU        0.429113    0.162596    0.250798     0.007504
AU569   AU        0.465106    0.128935    0.245791     0.007504
AU570   AU        0.463267    0.162893    0.283461     0.007504
AU571   AU        0.498510    0.127736    0.284319     0.007504
AU572   AU        0.501602    0.162591    0.247403     0.007504
AU573   AU        0.534807    0.131098    0.248597     0.007504
AU574   AU        0.535432    0.164077    0.284743     0.007504
PT575   PT        0.569830    0.132438    0.286040     0.004505
PT576   PT        0.570401    0.165823    0.250014     0.004505
PT577   PT        0.606021    0.166178    0.285350     0.004505
AU578   AU        0.640356    0.126819    0.284424     0.007504
PT579   PT        0.641930    0.166101    0.253907     0.004505
AU580   AU        0.679222    0.162832    0.288256     0.007504
AU581   AU        0.179935    0.227599    0.286921     0.007504
PT582   PT        0.218273    0.194050    0.285735     0.004505
AU583   AU        0.219420    0.228853    0.250189     0.007504
AU584   AU        0.255393    0.197419    0.248225     0.007504
AU585   AU        0.251312    0.228938    0.287014     0.007504
PT586   PT        0.290980    0.197043    0.285572     0.004505
PT587   PT        0.287546    0.228922    0.249722     0.004505
AU588   AU        0.322932    0.197102    0.248486     0.007504
AU589   AU        0.325653    0.230053    0.285853     0.007504
PT590   PT        0.355939    0.195112    0.285369     0.004505
PT591   PT        0.359744    0.229613    0.251952     0.004505
PT592   PT        0.396464    0.194882    0.252194     0.004505
PT593   PT        0.396231    0.228212    0.287804     0.004505
AU594   AU        0.431018    0.196719    0.284207     0.007504
AU595   AU        0.430309    0.231229    0.250019     0.007504
AU596   AU        0.467263    0.196994    0.251598     0.007504
AU597   AU        0.464695    0.229874    0.285458     0.007504
AU598   AU        0.499229    0.198099    0.286881     0.007504
PT599   PT        0.500804    0.229572    0.251552     0.004505
AU600   AU        0.535415    0.197250    0.252073     0.007504
AU601   AU        0.534731    0.231249    0.287797     0.007504
PT602   PT        0.569525    0.199412    0.286729     0.004505
PT603   PT        0.570368    0.230718    0.251914     0.004505
AU604   AU        0.604950    0.196348    0.249436     0.007504
AU605   AU        0.606813    0.230519    0.286390     0.007504
PT606   PT        0.640838    0.198419    0.288116     0.004505
PT607   PT        0.640310    0.230079    0.252493     0.004505
AU608   AU        0.678170    0.196028    0.252944     0.007504
AU609   AU        0.676028    0.230094    0.288185     0.007504
PT610   PT        0.711985    0.196069    0.286925     0.004505
AU611   AU        0.709352    0.230472    0.254649     0.007504
AU612   AU        0.748496    0.229110    0.286936     0.007504
AU613   AU        0.104550    0.294786    0.289752     0.007504
PT614   PT        0.143545    0.264160    0.285648     0.004505
AU615   AU        0.142918    0.291662    0.249708     0.007504
PT616   PT        0.180231    0.262855    0.247856     0.004505
AU617   AU        0.178556    0.296340    0.287237     0.007504
PT618   PT        0.217005    0.262666    0.287443     0.004505
PT619   PT        0.214288    0.291209    0.250671     0.004505
AU620   AU        0.254673    0.261337    0.253056     0.007504
AU621   AU        0.253959    0.296007    0.286187     0.007504
AU622   AU        0.291407    0.261960    0.284856     0.007504
PT623   PT        0.289351    0.296226    0.251471     0.004505
PT624   PT        0.324435    0.263631    0.248601     0.004505
PT625   PT        0.325477    0.294411    0.285074     0.004505
AU626   AU        0.362250    0.262407    0.285567     0.007504
PT627   PT        0.358805    0.293957    0.250616     0.004505
AU628   AU        0.395341    0.261139    0.251731     0.007504
PT629   PT        0.394051    0.296383    0.285687     0.004505
PT630   PT        0.430607    0.262932    0.285872     0.004505
AU631   AU        0.430161    0.296851    0.249696     0.007504
AU632   AU        0.465710    0.261579    0.250738     0.007504
PT633   PT        0.464355    0.294641    0.285920     0.004505
AU634   AU        0.500929    0.263075    0.285775     0.007504
AU635   AU        0.499735    0.294562    0.251167     0.007504
PT636   PT        0.535144    0.261981    0.251744     0.004505
PT637   PT        0.534761    0.295578    0.286112     0.004505
AU638   AU        0.569093    0.263144    0.285639     0.007504
PT639   PT        0.569567    0.294739    0.252256     0.004505
PT640   PT        0.604201    0.263388    0.252840     0.004505
PT641   PT        0.607476    0.295915    0.287253     0.004505
AU642   AU        0.641341    0.262519    0.287203     0.007504
AU643   AU        0.639752    0.295722    0.251655     0.007504
AU644   AU        0.674373    0.263326    0.252755     0.007504
PT645   PT        0.673445    0.295232    0.285807     0.004505
PT646   PT        0.710421    0.263180    0.287794     0.004505
PT647   PT        0.712217    0.295656    0.251732     0.004505
PT648   PT        0.747632    0.261793    0.251899     0.004505
AU649   AU        0.746689    0.294551    0.288962     0.007504
AU650   AU        0.782282    0.262617    0.288617     0.007504
AU651   AU        0.787165    0.293919    0.248535     0.007504
AU652   AU        0.823862    0.293082    0.283498     0.007504
AU653   AU        0.109180    0.359998    0.283291     0.007504
PT654   PT        0.143136    0.325107    0.283735     0.004505
AU655   AU        0.144769    0.360070    0.250950     0.007504
AU656   AU        0.178179    0.327272    0.249491     0.007504
AU657   AU        0.180435    0.363653    0.284263     0.007504
PT658   PT        0.219032    0.326980    0.285699     0.004505
PT659   PT        0.216598    0.358631    0.250595     0.004505
PT660   PT        0.253234    0.327554    0.250891     0.004505
AU661   AU        0.253297    0.359582    0.284806     0.007504
PT662   PT        0.290750    0.327683    0.287751     0.004505
PT663   PT        0.291002    0.360468    0.251817     0.004505
AU664   AU        0.325729    0.327054    0.249613     0.007504
PT665   PT        0.325913    0.362057    0.286453     0.004505
PT666   PT        0.357952    0.328746    0.284189     0.004505
AU667   AU        0.359309    0.361667    0.250169     0.007504
AU668   AU        0.393932    0.328635    0.251075     0.007504
PT669   PT        0.396044    0.360888    0.286598     0.004505
PT670   PT        0.430522    0.327325    0.286111     0.004505
PT671   PT        0.431079    0.361240    0.250524     0.004505
AU672   AU        0.464510    0.327708    0.250210     0.007504
PT673   PT        0.465133    0.360249    0.286309     0.004505
AU674   AU        0.499188    0.328792    0.286545     0.007504
PT675   PT        0.499019    0.360632    0.250652     0.004505
AU676   AU        0.535779    0.327746    0.251959     0.007504
AU677   AU        0.534834    0.361463    0.286024     0.007504
PT678   PT        0.568375    0.328362    0.287304     0.004505
PT679   PT        0.570621    0.361427    0.253348     0.004505
AU680   AU        0.604320    0.328340    0.251864     0.007504
PT681   PT        0.605183    0.361202    0.286727     0.004505
PT682   PT        0.641056    0.328939    0.287806     0.004505
PT683   PT        0.639854    0.360190    0.252708     0.004505
PT684   PT        0.674539    0.328249    0.252108     0.004505
PT685   PT        0.676812    0.362012    0.287305     0.004505
PT686   PT        0.710835    0.327195    0.286737     0.004505
AU687   AU        0.711312    0.362713    0.251038     0.007504
AU688   AU        0.746492    0.328026    0.252273     0.007504
PT689   PT        0.744875    0.361370    0.286994     0.004505
AU690   AU        0.784681    0.324231    0.286305     0.007504
AU691   AU        0.782999    0.359819    0.253161     0.007504
AU692   AU        0.817527    0.362814    0.285689     0.007504
AU693   AU        0.074786    0.393758    0.288592     0.007504
AU694   AU        0.104749    0.395112    0.250513     0.007504
PT695   PT        0.106015    0.425977    0.285530     0.004505
AU696   AU        0.141732    0.395148    0.281360     0.007504
PT697   PT        0.140421    0.427747    0.249231     0.004505
AU698   AU        0.179457    0.395791    0.250568     0.007504
PT699   PT        0.183651    0.425850    0.284766     0.004505
AU700   AU        0.219797    0.393329    0.287724     0.007504
PT701   PT        0.219062    0.425492    0.251124     0.004505
AU702   AU        0.252850    0.392950    0.251237     0.007504
PT703   PT        0.255337    0.425598    0.285924     0.004505
PT704   PT        0.290315    0.393497    0.284902     0.004505
AU705   AU        0.290800    0.426791    0.249327     0.007504
AU706   AU        0.324596    0.393936    0.249637     0.007504
PT707   PT        0.324081    0.426255    0.286656     0.004505
PT708   PT        0.359499    0.395187    0.285264     0.004505
AU709   AU        0.359700    0.427626    0.250513     0.007504
AU710   AU        0.396190    0.392506    0.251074     0.007504
PT711   PT        0.395600    0.425859    0.286280     0.004505
PT712   PT        0.431112    0.391780    0.285037     0.004505
PT713   PT        0.427883    0.426677    0.249890     0.004505
AU714   AU        0.464810    0.394747    0.250598     0.007504
PT715   PT        0.464044    0.426375    0.284497     0.004505
PT716   PT        0.500141    0.392958    0.284768     0.004505
PT717   PT        0.501115    0.426432    0.250757     0.004505
AU718   AU        0.533900    0.393710    0.249709     0.007504
AU719   AU        0.533739    0.426445    0.286336     0.007504
PT720   PT        0.570914    0.393307    0.286482     0.004505
PT721   PT        0.572120    0.425217    0.253176     0.004505
AU722   AU        0.604774    0.393532    0.251265     0.007504
PT723   PT        0.606306    0.426915    0.287806     0.004505
PT724   PT        0.640561    0.393852    0.286833     0.004505
PT725   PT        0.640791    0.425636    0.251581     0.004505
AU726   AU        0.673986    0.393884    0.252597     0.007504
AU727   AU        0.675473    0.427297    0.287697     0.007504
PT728   PT        0.711136    0.395068    0.286598     0.004505
AU729   AU        0.710458    0.427589    0.251644     0.007504
AU730   AU        0.748612    0.394770    0.251885     0.007504
AU731   AU        0.745683    0.427125    0.286479     0.007504
AU732   AU        0.782654    0.393517    0.288117     0.007504
AU733   AU        0.783605    0.429269    0.248939     0.007504
AU734   AU        0.820822    0.392542    0.250722     0.007504
AU735   AU        0.817727    0.428018    0.286628     0.007504
AU736   AU        0.851958    0.393994    0.287605     0.007504
PT737   PT        0.069201    0.456677    0.287958     0.004505
AU738   AU        0.106660    0.461927    0.251403     0.007504
PT739   PT        0.110878    0.494162    0.283982     0.004505
PT740   PT        0.145049    0.459090    0.283092     0.004505
AU741   AU        0.143881    0.492645    0.247859     0.007504
AU742   AU        0.179531    0.457546    0.250124     0.007504
AU743   AU        0.183339    0.492455    0.285347     0.007504
AU744   AU        0.218891    0.458283    0.287372     0.007504
AU745   AU        0.219222    0.491311    0.251246     0.007504
PT746   PT        0.255498    0.458812    0.251386     0.004505
PT747   PT        0.255509    0.492638    0.287247     0.004505
PT748   PT        0.290396    0.459872    0.287529     0.004505
PT749   PT        0.289845    0.492068    0.249882     0.004505
PT750   PT        0.324977    0.458447    0.250589     0.004505
PT751   PT        0.324365    0.494128    0.287256     0.004505
PT752   PT        0.360666    0.458772    0.287033     0.004505
AU753   AU        0.359446    0.490230    0.251320     0.007504
PT754   PT        0.394880    0.461181    0.251446     0.004505
AU755   AU        0.394598    0.491861    0.285541     0.007504
AU756   AU        0.427660    0.459314    0.284640     0.007504
AU757   AU        0.430567    0.492620    0.250411     0.007504
PT758   PT        0.465317    0.458640    0.251133     0.004505
PT759   PT        0.463673    0.491399    0.286230     0.004505
AU760   AU        0.500112    0.459117    0.285611     0.007504
PT761   PT        0.498484    0.492694    0.251030     0.004505
PT762   PT        0.536382    0.458268    0.251682     0.004505
PT763   PT        0.533341    0.493262    0.285389     0.004505
AU764   AU        0.569416    0.460273    0.286685     0.007504
PT765   PT        0.569842    0.492145    0.252928     0.004505
PT766   PT        0.605152    0.458871    0.253340     0.004505
AU767   AU        0.605881    0.493534    0.286827     0.007504
AU768   AU        0.641150    0.458494    0.287818     0.007504
AU769   AU        0.642598    0.491427    0.252254     0.007504
AU770   AU        0.675982    0.458782    0.251954     0.007504
AU771   AU        0.677184    0.491424    0.288220     0.007504
PT772   PT        0.710959    0.458689    0.284893     0.004505
AU773   AU        0.711248    0.491702    0.251987     0.007504
PT774   PT        0.746574    0.461723    0.252126     0.004505
AU775   AU        0.745994    0.494272    0.285525     0.007504
AU776   AU        0.782343    0.460349    0.286058     0.007504
AU777   AU        0.784146    0.490760    0.250176     0.007504
AU778   AU        0.820236    0.458640    0.251624     0.007504
PT779   PT        0.819247    0.492498    0.284992     0.004505
PT780   PT        0.855075    0.459086    0.284357     0.004505
AU781   AU        0.073444    0.524868    0.281875     0.007504
PT782   PT        0.108841    0.526156    0.245575     0.004505
AU783   AU        0.111108    0.556025    0.281673     0.007504
AU784   AU        0.147336    0.523169    0.288568     0.007504
PT785   PT        0.146292    0.556455    0.250985     0.004505
AU786   AU        0.179901    0.524454    0.249680     0.007504
PT787   PT        0.180200    0.558608    0.284792     0.004505
AU788   AU        0.216744    0.526293    0.282841     0.007504
PT789   PT        0.217513    0.555232    0.251853     0.004505
AU790   AU        0.255923    0.523631    0.250667     0.007504
AU791   AU        0.255504    0.556960    0.285821     0.007504
PT792   PT        0.289316    0.524078    0.285671     0.004505
AU793   AU        0.288790    0.559971    0.248810     0.007504
PT794   PT        0.324014    0.525802    0.251134     0.004505
PT795   PT        0.323644    0.558539    0.285356     0.004505
PT796   PT        0.360105    0.526062    0.285556     0.004505
PT797   PT        0.359135    0.556178    0.251907     0.004505
AU798   AU        0.395114    0.525198    0.248622     0.007504
AU799   AU        0.394636    0.557266    0.286248     0.007504
AU800   AU        0.428382    0.525264    0.286074     0.007504
PT801   PT        0.428407    0.557762    0.249807     0.004505
PT802   PT        0.463715    0.525337    0.251164     0.004505
PT803   PT        0.466441    0.559036    0.285562     0.004505
PT804   PT        0.498381    0.525427    0.286462     0.004505
AU805   AU        0.499568    0.558553    0.250855     0.007504
AU806   AU        0.535151    0.525500    0.251289     0.007504
PT807   PT        0.533630    0.557795    0.285574     0.004505
PT808   PT        0.569729    0.524755    0.285197     0.004505
PT809   PT        0.570087    0.559929    0.250333     0.004505
AU810   AU        0.603947    0.525659    0.252634     0.007504
PT811   PT        0.604629    0.559872    0.286558     0.004505
PT812   PT        0.638700    0.525060    0.285538     0.004505
PT813   PT        0.638622    0.557305    0.251633     0.004505
AU814   AU        0.676686    0.525015    0.251819     0.007504
AU815   AU        0.675137    0.558438    0.286163     0.007504
AU816   AU        0.710351    0.524143    0.286749     0.007504
AU817   AU        0.711270    0.557798    0.251429     0.007504
PT818   PT        0.746489    0.524713    0.249636     0.004505
AU819   AU        0.745240    0.558064    0.285338     0.007504
AU820   AU        0.779698    0.525551    0.284541     0.007504
PT821   PT        0.779478    0.558936    0.248599     0.004505
AU822   AU        0.815621    0.525110    0.251693     0.007504
PT823   PT        0.817870    0.561029    0.284538     0.004505
AU824   AU        0.853785    0.528629    0.282408     0.007504
AU825   AU        0.106703    0.626874    0.286607     0.007504
AU826   AU        0.142838    0.590531    0.283723     0.007504
AU827   AU        0.144401    0.626023    0.246899     0.007504
AU828   AU        0.179055    0.590675    0.250032     0.007504
PT829   PT        0.178328    0.621720    0.282944     0.004505
AU830   AU        0.215249    0.590909    0.285329     0.007504
PT831   PT        0.215854    0.623701    0.247448     0.004505
AU832   AU        0.253448    0.590118    0.250195     0.007504
PT833   PT        0.255901    0.621822    0.284108     0.004505
AU834   AU        0.290238    0.591781    0.285713     0.007504
PT835   PT        0.289350    0.625969    0.247771     0.004505
AU836   AU        0.323922    0.591511    0.250557     0.007504
AU837   AU        0.324723    0.623464    0.284733     0.007504
PT838   PT        0.361580    0.591085    0.286014     0.004505
PT839   PT        0.358713    0.622619    0.249703     0.004505
PT840   PT        0.392534    0.591629    0.249640     0.004505
AU841   AU        0.394594    0.623901    0.286711     0.007504
AU842   AU        0.428635    0.590131    0.284302     0.007504
AU843   AU        0.431372    0.624358    0.249968     0.007504
PT844   PT        0.464435    0.591198    0.250703     0.004505
PT845   PT        0.465851    0.624351    0.283866     0.004505
PT846   PT        0.500707    0.592193    0.284526     0.004505
AU847   AU        0.501645    0.625295    0.251482     0.007504
PT848   PT        0.535306    0.592731    0.249323     0.004505
PT849   PT        0.535073    0.624300    0.288472     0.004505
PT850   PT        0.569111    0.591031    0.286097     0.004505
AU851   AU        0.571434    0.624680    0.253499     0.007504
PT852   PT        0.606013    0.591806    0.252183     0.004505
PT853   PT        0.606015    0.622658    0.288979     0.004505
PT854   PT        0.640798    0.590131    0.287269     0.004505
PT855   PT        0.640957    0.622779    0.251772     0.004505
AU856   AU        0.675305    0.590120    0.250119     0.007504
PT857   PT        0.675826    0.623233    0.286036     0.004505
AU858   AU        0.710717    0.591355    0.283336     0.007504
PT859   PT        0.710989    0.624271    0.249347     0.004505
AU860   AU        0.746420    0.589917    0.249682     0.007504
PT861   PT        0.747343    0.622216    0.285235     0.004505
AU862   AU        0.780669    0.591582    0.286844     0.007504
PT863   PT        0.782304    0.627922    0.249150     0.004505
PT864   PT        0.820154    0.620933    0.281588     0.004505
AU865   AU        0.139865    0.655727    0.279415     0.007504
AU866   AU        0.180466    0.657498    0.249337     0.007504
AU867   AU        0.176184    0.691032    0.283969     0.007504
AU868   AU        0.215879    0.656164    0.284488     0.007504
AU869   AU        0.214537    0.690244    0.247657     0.007504
AU870   AU        0.251962    0.656317    0.246897     0.007504
AU871   AU        0.250816    0.689602    0.284145     0.007504
PT872   PT        0.289523    0.654896    0.284184     0.004505
AU873   AU        0.286865    0.691795    0.250161     0.007504
PT874   PT        0.324169    0.656993    0.251320     0.004505
AU875   AU        0.324248    0.689057    0.284135     0.007504
AU876   AU        0.359799    0.655849    0.285416     0.007504
AU877   AU        0.360848    0.688466    0.249488     0.007504
AU878   AU        0.394929    0.655714    0.252892     0.007504
AU879   AU        0.396049    0.688747    0.286526     0.007504
PT880   PT        0.432065    0.658118    0.285380     0.004505
AU881   AU        0.428898    0.689241    0.248938     0.007504
PT882   PT        0.465140    0.657207    0.251360     0.004505
PT883   PT        0.466462    0.689189    0.285654     0.004505
PT884   PT        0.499670    0.655782    0.286945     0.004505
PT885   PT        0.502603    0.688249    0.251893     0.004505
AU886   AU        0.534814    0.655980    0.250529     0.007504
PT887   PT        0.534355    0.688293    0.285972     0.004505
PT888   PT        0.569939    0.654951    0.287252     0.004505
AU889   AU        0.572357    0.690342    0.251003     0.007504
AU890   AU        0.605756    0.655994    0.252481     0.007504
PT891   PT        0.603737    0.691195    0.287029     0.004505
PT892   PT        0.638934    0.656186    0.286679     0.004505
AU893   AU        0.640625    0.689499    0.252029     0.007504
AU894   AU        0.675417    0.656192    0.250768     0.007504
PT895   PT        0.675138    0.691518    0.285987     0.004505
AU896   AU        0.710928    0.657790    0.286658     0.007504
PT897   PT        0.708758    0.693229    0.252275     0.004505
PT898   PT        0.748894    0.661956    0.251754     0.004505
AU899   AU        0.747034    0.693001    0.289699     0.007504
PT900   PT        0.783026    0.657276    0.286522     0.004505
AU901   AU        0.213418    0.722637    0.281276     0.007504
PT902   PT        0.253823    0.726520    0.251175     0.004505
PT903   PT        0.247386    0.758285    0.285379     0.004505
AU904   AU        0.286983    0.726504    0.286282     0.007504
PT905   PT        0.286733    0.759664    0.248268     0.004505
AU906   AU        0.321339    0.724557    0.249852     0.007504
PT907   PT        0.325542    0.757029    0.285462     0.004505
AU908   AU        0.360286    0.720604    0.283510     0.007504
PT909   PT        0.358204    0.754393    0.249215     0.004505
AU910   AU        0.395443    0.724633    0.250843     0.007504
PT911   PT        0.393858    0.757126    0.282568     0.004505
PT912   PT        0.430544    0.720584    0.285792     0.004505
AU913   AU        0.430112    0.756116    0.249999     0.007504
AU914   AU        0.465723    0.720760    0.249734     0.007504
AU915   AU        0.463055    0.756409    0.287022     0.007504
AU916   AU        0.500257    0.724296    0.285418     0.007504
AU917   AU        0.499245    0.758278    0.249461     0.007504
AU918   AU        0.533724    0.724045    0.248763     0.007504
AU919   AU        0.534716    0.754997    0.286071     0.007504
PT920   PT        0.569712    0.723298    0.288071     0.004505
PT921   PT        0.571544    0.756565    0.251229     0.004505
AU922   AU        0.607459    0.723514    0.249485     0.007504
AU923   AU        0.604630    0.757621    0.286947     0.007504
PT924   PT        0.640698    0.722754    0.285088     0.004505
AU925   AU        0.638427    0.762232    0.248418     0.007504
PT926   PT        0.675631    0.726325    0.250190     0.004505
PT927   PT        0.678586    0.758897    0.286526     0.004505
AU928   AU        0.710125    0.725011    0.287076     0.007504
AU929   AU        0.202388    0.888504    0.322142     0.007504
PT930   PT        0.359044    0.790974    0.280440     0.004505
PT931   PT        0.395642    0.788739    0.248039     0.004505
PT932   PT        0.360093    0.823746    0.317804     0.004505
AU933   AU        0.429706    0.790252    0.288306     0.007504
AU934   AU        0.463491    0.793693    0.249589     0.007504
PT935   PT        0.462224    0.825206    0.284967     0.004505
AU936   AU        0.498017    0.790419    0.285389     0.007504
PT937   PT        0.533095    0.790532    0.250741     0.004505
AU938   AU        0.521836    0.851855    0.289960     0.007504
AU939   AU        0.567862    0.791198    0.283328     0.007504
PT940   PT        0.642617    0.790299    0.287306     0.004505
AU941   AU        0.323001    0.097729    0.354016     0.007504
AU942   AU        0.356271    0.093938    0.319525     0.007504
AU943   AU        0.393370    0.093385    0.354981     0.007504
PT944   PT        0.428175    0.094483    0.321478     0.004505
AU945   AU        0.463430    0.093823    0.358368     0.007504
AU946   AU        0.497979    0.094817    0.317907     0.007504
AU947   AU        0.534593    0.096372    0.352136     0.007504
AU948   AU        0.570335    0.094152    0.317981     0.007504
AU949   AU        0.605829    0.095704    0.353754     0.007504
AU950   AU        0.217097    0.160363    0.322786     0.007504
PT951   PT        0.252780    0.163024    0.356102     0.004505
PT952   PT        0.289331    0.130915    0.353793     0.004505
AU953   AU        0.290164    0.163519    0.321425     0.007504
AU954   AU        0.323046    0.128488    0.318087     0.007504
PT955   PT        0.325877    0.165289    0.357334     0.004505
PT956   PT        0.359503    0.128297    0.356096     0.004505
AU957   AU        0.358614    0.164412    0.322282     0.007504
PT958   PT        0.393153    0.129593    0.319228     0.004505
PT959   PT        0.394982    0.161451    0.357162     0.004505
PT960   PT        0.432045    0.128658    0.355942     0.004505
AU961   AU        0.430405    0.162104    0.318649     0.007504
AU962   AU        0.463321    0.127837    0.319509     0.007504
AU963   AU        0.465449    0.161796    0.355543     0.007504
PT964   PT        0.499420    0.130087    0.352012     0.004505
AU965   AU        0.500754    0.163345    0.318970     0.007504
AU966   AU        0.534132    0.127367    0.317744     0.007504
PT967   PT        0.535283    0.164386    0.357827     0.004505
AU968   AU        0.570633    0.131375    0.353905     0.007504
PT969   PT        0.568277    0.165747    0.320820     0.004505
PT970   PT        0.607813    0.128567    0.319623     0.004505
AU971   AU        0.604822    0.163785    0.354020     0.007504
AU972   AU        0.642157    0.130077    0.356906     0.007504
AU973   AU        0.642115    0.164313    0.320436     0.007504
AU974   AU        0.677039    0.163518    0.356510     0.007504
AU975   AU        0.713958    0.162587    0.323622     0.007504
AU976   AU        0.087883    0.173364    0.338023     0.007504
AU977   AU        0.183783    0.191515    0.319890     0.007504
AU978   AU        0.180659    0.226931    0.352299     0.007504
AU979   AU        0.218524    0.194517    0.354568     0.007504
PT980   PT        0.217282    0.230622    0.319735     0.004505
PT981   PT        0.255023    0.194917    0.321244     0.004505
AU982   AU        0.254928    0.227841    0.357239     0.007504
AU983   AU        0.287632    0.196666    0.355992     0.007504
PT984   PT        0.289189    0.229834    0.319961     0.004505
AU985   AU        0.323621    0.198504    0.321899     0.007504
PT986   PT        0.325914    0.229747    0.356653     0.004505
PT987   PT        0.361216    0.197772    0.358406     0.004505
AU988   AU        0.361227    0.229117    0.320829     0.007504
PT989   PT        0.396855    0.196900    0.321791     0.004505
PT990   PT        0.394330    0.230448    0.355828     0.004505
PT991   PT        0.431151    0.197241    0.357823     0.004505
PT992   PT        0.431278    0.230857    0.322161     0.004505
AU993   AU        0.463927    0.197457    0.320124     0.007504
PT994   PT        0.465247    0.230926    0.357116     0.004505
PT995   PT        0.499153    0.197272    0.355845     0.004505
PT996   PT        0.499736    0.230029    0.321496     0.004505
AU997   AU        0.535061    0.197396    0.320507     0.007504
PT998   PT        0.536732    0.230081    0.355620     0.004505
PT999   PT        0.568137    0.199513    0.356993     0.004505
PT1000   PT        0.571180    0.231884    0.322205     0.004505
AU1001   AU        0.604874    0.197929    0.322815     0.007504
PT1002   PT        0.605583    0.230489    0.356710     0.004505
PT1003   PT        0.639180    0.196636    0.355743     0.004505
PT1004   PT        0.640171    0.231322    0.320995     0.004505
AU1005   AU        0.676166    0.197054    0.321536     0.007504
PT1006   PT        0.675788    0.230736    0.356712     0.004505
AU1007   AU        0.711355    0.199558    0.357637     0.007504
AU1008   AU        0.711248    0.228903    0.321591     0.007504
PT1009   PT        0.748453    0.196595    0.319435     0.004505
PT1010   PT        0.746768    0.229393    0.357622     0.004505
AU1011   AU        0.784748    0.228738    0.324075     0.007504
AU1012   AU        0.109078    0.293845    0.355506     0.007504
PT1013   PT        0.145984    0.263011    0.356320     0.004505
AU1014   AU        0.144036    0.296438    0.322018     0.007504
PT1015   PT        0.181967    0.263367    0.322049     0.004505
PT1016   PT        0.181220    0.297135    0.354905     0.004505
AU1017   AU        0.219234    0.263705    0.354944     0.007504
PT1018   PT        0.217293    0.296685    0.321451     0.004505
AU1019   AU        0.254406    0.265103    0.321542     0.007504
PT1020   PT        0.253614    0.295599    0.356074     0.004505
AU1021   AU        0.288716    0.262151    0.357732     0.007504
AU1022   AU        0.289491    0.295554    0.320685     0.007504
PT1023   PT        0.323859    0.263794    0.319974     0.004505
AU1024   AU        0.325481    0.296439    0.356933     0.007504
PT1025   PT        0.360981    0.261462    0.358951     0.004505
AU1026   AU        0.359858    0.296352    0.319991     0.007504
AU1027   AU        0.394869    0.262245    0.320721     0.007504
AU1028   AU        0.396596    0.295397    0.357286     0.007504
PT1029   PT        0.431353    0.263772    0.357227     0.004505
PT1030   PT        0.429253    0.296730    0.319588     0.004505
PT1031   PT        0.464390    0.264406    0.321737     0.004505
PT1032   PT        0.465467    0.295690    0.356418     0.004505
PT1033   PT        0.499582    0.262954    0.355866     0.004505
PT1034   PT        0.500167    0.296310    0.321656     0.004505
PT1035   PT        0.536396    0.264440    0.323272     0.004505
PT1036   PT        0.534628    0.294641    0.357642     0.004505
AU1037   AU        0.569569    0.262924    0.355944     0.007504
AU1038   AU        0.571037    0.297071    0.320054     0.007504
PT1039   PT        0.604456    0.262586    0.322212     0.004505
AU1040   AU        0.604577    0.296479    0.356940     0.007504
PT1041   PT        0.640699    0.262983    0.357963     0.004505
PT1042   PT        0.641126    0.294378    0.322875     0.004505
PT1043   PT        0.676764    0.262283    0.322002     0.004505
AU1044   AU        0.675558    0.296175    0.356333     0.007504
PT1045   PT        0.709439    0.262898    0.357838     0.004505
AU1046   AU        0.711399    0.295412    0.323454     0.007504
PT1047   PT        0.745097    0.262586    0.322510     0.004505
AU1048   AU        0.744153    0.295089    0.357417     0.007504
PT1049   PT        0.780446    0.263738    0.357469     0.004505
AU1050   AU        0.783654    0.296090    0.321081     0.007504
AU1051   AU        0.818533    0.297189    0.355755     0.007504
AU1052   AU        0.076381    0.328415    0.358641     0.007504
PT1053   PT        0.070641    0.359615    0.321554     0.004505
AU1054   AU        0.110633    0.330863    0.322662     0.007504
AU1055   AU        0.108346    0.360052    0.356447     0.007504
PT1056   PT        0.147237    0.330785    0.355726     0.004505
AU1057   AU        0.146886    0.361910    0.317259     0.007504
AU1058   AU        0.183344    0.328335    0.317179     0.007504
PT1059   PT        0.184038    0.360862    0.354952     0.004505
AU1060   AU        0.218209    0.328201    0.356444     0.007504
AU1061   AU        0.220568    0.360063    0.321620     0.007504
AU1062   AU        0.253305    0.327667    0.322432     0.007504
AU1063   AU        0.254169    0.361289    0.357003     0.007504
AU1064   AU        0.287841    0.326511    0.356346     0.007504
PT1065   PT        0.290478    0.360434    0.322657     0.004505
PT1066   PT        0.325215    0.328238    0.321410     0.004505
PT1067   PT        0.324831    0.360484    0.356160     0.004505
PT1068   PT        0.361893    0.328353    0.354815     0.004505
AU1069   AU        0.360909    0.360812    0.320176     0.007504
PT1070   PT        0.394789    0.327261    0.322081     0.004505
PT1071   PT        0.396493    0.361359    0.356473     0.004505
PT1072   PT        0.429923    0.327139    0.355852     0.004505
PT1073   PT        0.431166    0.359504    0.322110     0.004505
AU1074   AU        0.463780    0.327825    0.320786     0.007504
PT1075   PT        0.464721    0.360382    0.356306     0.004505
PT1076   PT        0.500471    0.328119    0.355835     0.004505
PT1077   PT        0.500342    0.360646    0.321972     0.004505
AU1078   AU        0.534525    0.327164    0.323132     0.007504
AU1079   AU        0.534476    0.361197    0.356898     0.007504
PT1080   PT        0.570328    0.328198    0.356588     0.004505
PT1081   PT        0.571236    0.361592    0.321051     0.004505
PT1082   PT        0.606131    0.329429    0.320958     0.004505
PT1083   PT        0.605097    0.360179    0.356960     0.004505
PT1084   PT        0.640977    0.328983    0.356875     0.004505
PT1085   PT        0.640579    0.361663    0.321592     0.004505
PT1086   PT        0.676799    0.327457    0.321658     0.004505
AU1087   AU        0.673813    0.360914    0.356010     0.007504
PT1088   PT        0.709691    0.329153    0.357519     0.004505
AU1089   AU        0.711179    0.360355    0.322317     0.007504
AU1090   AU        0.747150    0.328117    0.321492     0.007504
AU1091   AU        0.744775    0.361556    0.357767     0.007504
AU1092   AU        0.781151    0.326806    0.356732     0.007504
PT1093   PT        0.781429    0.360113    0.321150     0.004505
PT1094   PT        0.817460    0.329580    0.320893     0.004505
AU1095   AU        0.817210    0.360861    0.356512     0.007504
AU1096   AU        0.854861    0.328260    0.352110     0.007504
AU1097   AU        0.853688    0.361993    0.321638     0.007504
AU1098   AU        0.070577    0.394951    0.355248     0.007504
PT1099   PT        0.037667    0.400221    0.320772     0.004505
AU1100   AU        0.109067    0.392726    0.321792     0.007504
AU1101   AU        0.111351    0.426536    0.352942     0.007504
PT1102   PT        0.146912    0.394134    0.354165     0.004505
PT1103   PT        0.145823    0.424794    0.317589     0.004505
AU1104   AU        0.184464    0.394137    0.319852     0.007504
AU1105   AU        0.184341    0.425797    0.355349     0.007504
PT1106   PT        0.220293    0.391982    0.356326     0.004505
AU1107   AU        0.221161    0.424160    0.321886     0.007504
PT1108   PT        0.255246    0.391335    0.321418     0.004505
AU1109   AU        0.255417    0.425555    0.357005     0.007504
PT1110   PT        0.289592    0.393656    0.357260     0.004505
AU1111   AU        0.289563    0.427053    0.321561     0.007504
PT1112   PT        0.322260    0.394496    0.322032     0.004505
AU1113   AU        0.325407    0.428111    0.355720     0.007504
PT1114   PT        0.360052    0.392797    0.354615     0.004505
PT1115   PT        0.360162    0.425102    0.320945     0.004505
AU1116   AU        0.395566    0.393131    0.320943     0.007504
PT1117   PT        0.393911    0.426835    0.356173     0.004505
AU1118   AU        0.431139    0.392850    0.354695     0.007504
PT1119   PT        0.430159    0.425950    0.320246     0.004505
PT1120   PT        0.466382    0.392722    0.320977     0.004505
AU1121   AU        0.464547    0.426360    0.356511     0.007504
PT1122   PT        0.500636    0.394440    0.356611     0.004505
PT1123   PT        0.498866    0.426986    0.320281     0.004505
PT1124   PT        0.534984    0.395074    0.322556     0.004505
AU1125   AU        0.533772    0.428166    0.354933     0.007504
PT1126   PT        0.569872    0.393135    0.357931     0.004505
PT1127   PT        0.569990    0.426883    0.320835     0.004505
PT1128   PT        0.604085    0.393162    0.322471     0.004505
PT1129   PT        0.605620    0.426908    0.356609     0.004505
PT1130   PT        0.640455    0.395310    0.355625     0.004505
AU1131   AU        0.640992    0.426182    0.321679     0.007504
AU1132   AU        0.676544    0.394318    0.322888     0.007504
PT1133   PT        0.676126    0.425507    0.356740     0.004505
AU1134   AU        0.710259    0.392900    0.357853     0.007504
AU1135   AU        0.708850    0.426488    0.322534     0.007504
AU1136   AU        0.744195    0.392577    0.324748     0.007504
AU1137   AU        0.746517    0.426561    0.355473     0.007504
AU1138   AU        0.781618    0.391555    0.357653     0.007504
AU1139   AU        0.779182    0.425833    0.321582     0.007504
AU1140   AU        0.817127    0.394991    0.323111     0.007504
AU1141   AU        0.813842    0.428444    0.355995     0.007504
PT1142   PT        0.854940    0.392843    0.356880     0.004505
AU1143   AU        0.852976    0.425665    0.322782     0.007504
AU1144   AU        0.071401    0.461368    0.356353     0.007504
PT1145   PT        0.072820    0.493947    0.319894     0.004505
PT1146   PT        0.109681    0.460152    0.321074     0.004505
AU1147   AU        0.109346    0.492835    0.354842     0.007504
AU1148   AU        0.147862    0.457611    0.354269     0.007504
AU1149   AU        0.147544    0.490049    0.321197     0.007504
PT1150   PT        0.186022    0.459684    0.322151     0.004505
PT1151   PT        0.180746    0.491029    0.358095     0.004505
AU1152   AU        0.219617    0.458480    0.356525     0.007504
AU1153   AU        0.218596    0.493610    0.322599     0.007504
AU1154   AU        0.254739    0.458309    0.322687     0.007504
PT1155   PT        0.256147    0.491780    0.357733     0.004505
PT1156   PT        0.290584    0.459244    0.356804     0.004505
AU1157   AU        0.289960    0.491744    0.322068     0.007504
AU1158   AU        0.324644    0.458574    0.319831     0.007504
PT1159   PT        0.323534    0.491796    0.356583     0.004505
PT1160   PT        0.358871    0.461160    0.357291     0.004505
AU1161   AU        0.361449    0.491361    0.321304     0.007504
PT1162   PT        0.395088    0.458599    0.320355     0.004505
PT1163   PT        0.394037    0.491539    0.354602     0.004505
PT1164   PT        0.429011    0.458423    0.355323     0.004505
PT1165   PT        0.428425    0.491994    0.318708     0.004505
PT1166   PT        0.462855    0.458870    0.320029     0.004505
AU1167   AU        0.464826    0.492115    0.354960     0.007504
PT1168   PT        0.500221    0.460041    0.356352     0.004505
AU1169   AU        0.501017    0.492097    0.320382     0.007504
PT1170   PT        0.534590    0.458855    0.319154     0.004505
AU1171   AU        0.535762    0.491249    0.356309     0.007504
PT1172   PT        0.569815    0.460872    0.357207     0.004505
PT1173   PT        0.569890    0.492720    0.320168     0.004505
PT1174   PT        0.604472    0.459345    0.321200     0.004505
PT1175   PT        0.604288    0.493028    0.356507     0.004505
PT1176   PT        0.641231    0.458622    0.356713     0.004505
PT1177   PT        0.640952    0.492700    0.320918     0.004505
AU1178   AU        0.676196    0.459345    0.320753     0.007504
PT1179   PT        0.674549    0.493232    0.357173     0.004505
PT1180   PT        0.710816    0.459331    0.356669     0.004505
PT1181   PT        0.709414    0.493354    0.322566     0.004505
AU1182   AU        0.744716    0.461020    0.319986     0.007504
PT1183   PT        0.746291    0.492943    0.355668     0.004505
PT1184   PT        0.779515    0.459374    0.357080     0.004505
AU1185   AU        0.782297    0.493653    0.320974     0.007504
PT1186   PT        0.818428    0.459310    0.321373     0.004505
AU1187   AU        0.816060    0.492572    0.356605     0.007504
AU1188   AU        0.849956    0.461618    0.356205     0.007504
PT1189   PT        0.854419    0.495181    0.320248     0.004505
PT1190   PT        0.075225    0.527527    0.356985     0.004505
AU1191   AU        0.076612    0.556556    0.319178     0.007504
AU1192   AU        0.109601    0.524913    0.319849     0.007504
PT1193   PT        0.110874    0.557284    0.353824     0.004505
AU1194   AU        0.147496    0.523253    0.351743     0.007504
AU1195   AU        0.145622    0.559934    0.320428     0.007504
PT1196   PT        0.185191    0.526788    0.320439     0.004505
AU1197   AU        0.182976    0.557518    0.356426     0.007504
PT1198   PT        0.220045    0.527360    0.357210     0.004505
PT1199   PT        0.218373    0.558821    0.319895     0.004505
AU1200   AU        0.251966    0.525268    0.321926     0.007504
AU1201   AU        0.254018    0.559243    0.355411     0.007504
PT1202   PT        0.288611    0.524518    0.354802     0.004505
PT1203   PT        0.289043    0.557229    0.321656     0.004505
AU1204   AU        0.324846    0.523616    0.322288     0.007504
PT1205   PT        0.325408    0.557342    0.357755     0.004505
PT1206   PT        0.359385    0.524707    0.355818     0.004505
PT1207   PT        0.358988    0.558426    0.319907     0.004505
AU1208   AU        0.394818    0.526754    0.320777     0.007504
AU1209   AU        0.394840    0.557732    0.357190     0.007504
PT1210   PT        0.429222    0.524188    0.354402     0.004505
PT1211   PT        0.430255    0.559216    0.322323     0.004505
PT1212   PT        0.465247    0.525565    0.321573     0.004505
PT1213   PT        0.465243    0.557140    0.354917     0.004505
PT1214   PT        0.499692    0.524794    0.354317     0.004505
PT1215   PT        0.500365    0.558447    0.321849     0.004505
AU1216   AU        0.536275    0.523882    0.320285     0.007504
AU1217   AU        0.535602    0.558505    0.357865     0.007504
PT1218   PT        0.570756    0.524527    0.356889     0.004505
PT1219   PT        0.569494    0.558214    0.322446     0.004505
PT1220   PT        0.605564    0.524484    0.319237     0.004505
PT1221   PT        0.604436    0.557402    0.356271     0.004505
PT1222   PT        0.639635    0.525414    0.356766     0.004505
PT1223   PT        0.638807    0.556139    0.322205     0.004505
PT1224   PT        0.674791    0.525802    0.321169     0.004505
PT1225   PT        0.674106    0.558920    0.356509     0.004505
AU1226   AU        0.709743    0.526020    0.357092     0.007504
AU1227   AU        0.710194    0.557928    0.320679     0.007504
AU1228   AU        0.746824    0.524035    0.321942     0.007504
AU1229   AU        0.745128    0.557628    0.355568     0.007504
AU1230   AU        0.781015    0.526270    0.356813     0.007504
AU1231   AU        0.780054    0.556524    0.320064     0.007504
PT1232   PT        0.817894    0.528725    0.319500     0.004505
PT1233   PT        0.815371    0.557912    0.356557     0.004505
AU1234   AU        0.853523    0.524533    0.357631     0.007504
AU1235   AU        0.857857    0.557260    0.320820     0.007504
AU1236   AU        0.072559    0.589683    0.353252     0.007504
PT1237   PT        0.107648    0.591242    0.317706     0.004505
AU1238   AU        0.108282    0.623310    0.352694     0.007504
AU1239   AU        0.145913    0.590983    0.355559     0.007504
PT1240   PT        0.146489    0.624367    0.319965     0.004505
AU1241   AU        0.180723    0.587934    0.319181     0.007504
AU1242   AU        0.183722    0.624629    0.353650     0.007504
PT1243   PT        0.218204    0.590383    0.355119     0.004505
AU1244   AU        0.217519    0.623292    0.318589     0.007504
PT1245   PT        0.253520    0.591702    0.319134     0.004505
AU1246   AU        0.254092    0.621744    0.355230     0.007504
PT1247   PT        0.289793    0.590855    0.354051     0.004505
AU1248   AU        0.290699    0.623225    0.319542     0.007504
AU1249   AU        0.324937    0.591014    0.321530     0.007504
AU1250   AU        0.323288    0.622260    0.358066     0.007504
PT1251   PT        0.359434    0.589765    0.356822     0.004505
PT1252   PT        0.359738    0.622212    0.321674     0.004505
PT1253   PT        0.395913    0.589521    0.322434     0.004505
AU1254   AU        0.394255    0.624049    0.354683     0.007504
PT1255   PT        0.430870    0.592359    0.356213     0.004505
PT1256   PT        0.430766    0.623300    0.319815     0.004505
AU1257   AU        0.467152    0.591263    0.321410     0.007504
PT1258   PT        0.466245    0.624396    0.357367     0.004505
AU1259   AU        0.499719    0.590547    0.356625     0.007504
AU1260   AU        0.499040    0.624141    0.322397     0.007504
PT1261   PT        0.534349    0.590331    0.321383     0.004505
AU1262   AU        0.535912    0.622976    0.355142     0.007504
PT1263   PT        0.571404    0.591404    0.357343     0.004505
PT1264   PT        0.570267    0.624548    0.321867     0.004505
PT1265   PT        0.606183    0.589965    0.320578     0.004505
PT1266   PT        0.606516    0.621919    0.355905     0.004505
AU1267   AU        0.641323    0.590954    0.355476     0.007504
PT1268   PT        0.641496    0.622885    0.321548     0.004505
PT1269   PT        0.675773    0.590826    0.321235     0.004505
AU1270   AU        0.675192    0.622793    0.356282     0.007504
AU1271   AU        0.710061    0.589513    0.355867     0.007504
AU1272   AU        0.712548    0.622858    0.321572     0.007504
AU1273   AU        0.746898    0.591262    0.319940     0.007504
PT1274   PT        0.746672    0.624640    0.355333     0.004505
PT1275   PT        0.779175    0.590415    0.357032     0.004505
AU1276   AU        0.780672    0.624584    0.320834     0.007504
AU1277   AU        0.814716    0.590873    0.322186     0.007504
PT1278   PT        0.815854    0.622320    0.357962     0.004505
AU1279   AU        0.853078    0.589884    0.356263     0.007504
PT1280   PT        0.142381    0.658832    0.353544     0.004505
PT1281   PT        0.139934    0.687763    0.316734     0.004505
AU1282   AU        0.176920    0.656893    0.316662     0.007504
AU1283   AU        0.177718    0.690192    0.355187     0.007504
PT1284   PT        0.217785    0.655835    0.355250     0.004505
PT1285   PT        0.213815    0.688026    0.319753     0.004505
PT1286   PT        0.254475    0.655556    0.319256     0.004505
PT1287   PT        0.252836    0.690667    0.354144     0.004505
AU1288   AU        0.289084    0.655486    0.356045     0.007504
AU1289   AU        0.290028    0.689207    0.319659     0.007504
AU1290   AU        0.324361    0.655395    0.320155     0.007504
AU1291   AU        0.323318    0.689977    0.355655     0.007504
AU1292   AU        0.358654    0.656691    0.353367     0.007504
PT1293   PT        0.360340    0.687319    0.321111     0.004505
AU1294   AU        0.395627    0.657541    0.320835     0.007504
AU1295   AU        0.396364    0.687902    0.355373     0.007504
AU1296   AU        0.431250    0.656476    0.357643     0.007504
AU1297   AU        0.431383    0.690512    0.321154     0.007504
PT1298   PT        0.465739    0.656429    0.320665     0.004505
PT1299   PT        0.465548    0.688577    0.356073     0.004505
PT1300   PT        0.500874    0.655749    0.356608     0.004505
PT1301   PT        0.501106    0.688959    0.320949     0.004505
PT1302   PT        0.535264    0.657135    0.323647     0.004505
AU1303   AU        0.535955    0.688025    0.357112     0.007504
PT1304   PT        0.571645    0.655000    0.356123     0.004505
PT1305   PT        0.571469    0.688518    0.322458     0.004505
AU1306   AU        0.604907    0.656701    0.321767     0.007504
PT1307   PT        0.604998    0.689776    0.355256     0.004505
PT1308   PT        0.640292    0.656561    0.357598     0.004505
AU1309   AU        0.639239    0.692094    0.320592     0.007504
AU1310   AU        0.675656    0.656609    0.322253     0.007504
AU1311   AU        0.675190    0.690898    0.356177     0.007504
AU1312   AU        0.709437    0.656326    0.356641     0.007504
PT1313   PT        0.709866    0.689989    0.320880     0.004505
PT1314   PT        0.745461    0.656795    0.318753     0.004505
PT1315   PT        0.745704    0.689233    0.356085     0.004505
PT1316   PT        0.781129    0.654474    0.356994     0.004505
AU1317   AU        0.851181    0.699664    0.319076     0.007504
AU1318   AU        0.176154    0.721400    0.320788     0.007504
PT1319   PT        0.214645    0.723943    0.355727     0.004505
AU1320   AU        0.211895    0.760700    0.322596     0.007504
AU1321   AU        0.251036    0.723478    0.318724     0.007504
PT1322   PT        0.251087    0.756490    0.354906     0.004505
AU1323   AU        0.289295    0.722066    0.352890     0.007504
AU1324   AU        0.286771    0.761205    0.318007     0.007504
PT1325   PT        0.324807    0.723076    0.319119     0.004505
AU1326   AU        0.324284    0.755742    0.355568     0.007504
PT1327   PT        0.359645    0.721068    0.355853     0.004505
PT1328   PT        0.359150    0.753515    0.318898     0.004505
PT1329   PT        0.395976    0.722010    0.318150     0.004505
PT1330   PT        0.394405    0.756130    0.355032     0.004505
AU1331   AU        0.429709    0.722438    0.355039     0.007504
AU1332   AU        0.428363    0.756324    0.319423     0.007504
PT1333   PT        0.464905    0.721880    0.321143     0.004505
PT1334   PT        0.462818    0.755805    0.354346     0.004505
AU1335   AU        0.498826    0.722415    0.354635     0.007504
AU1336   AU        0.498950    0.756524    0.321752     0.007504
AU1337   AU        0.535829    0.721501    0.323292     0.007504
PT1338   PT        0.535621    0.755340    0.354784     0.004505
PT1339   PT        0.570710    0.721540    0.356514     0.004505
PT1340   PT        0.570776    0.755335    0.320696     0.004505
AU1341   AU        0.604555    0.723703    0.321575     0.007504
AU1342   AU        0.602908    0.756235    0.355231     0.007504
PT1343   PT        0.638130    0.724050    0.357567     0.004505
PT1344   PT        0.638780    0.756269    0.322300     0.004505
AU1345   AU        0.675089    0.723619    0.320111     0.007504
PT1346   PT        0.673037    0.758097    0.355402     0.004505
PT1347   PT        0.709543    0.723222    0.356070     0.004505
PT1348   PT        0.670144    0.791980    0.318113     0.004505
AU1349   AU        0.747038    0.726542    0.324267     0.007504
AU1350   AU        0.285349    0.790330    0.354130     0.007504
PT1351   PT        0.325673    0.791617    0.318778     0.004505
AU1352   AU        0.319690    0.822511    0.354493     0.007504
AU1353   AU        0.358690    0.791345    0.356227     0.007504
PT1354   PT        0.321065    0.858375    0.314150     0.004505
PT1355   PT        0.391448    0.788167    0.318297     0.004505
AU1356   AU        0.395974    0.824005    0.354352     0.007504
AU1357   AU        0.429087    0.789626    0.355682     0.007504
AU1358   AU        0.382889    0.866724    0.358296     0.007504
PT1359   PT        0.460774    0.792118    0.318720     0.004505
AU1360   AU        0.464049    0.822180    0.354955     0.007504
AU1361   AU        0.499790    0.787383    0.354995     0.007504
PT1362   PT        0.500095    0.822026    0.318674     0.004505
PT1363   PT        0.533592    0.788509    0.318180     0.004505
PT1364   PT        0.534649    0.822637    0.353310     0.004505
AU1365   AU        0.568427    0.789183    0.355013     0.007504
AU1366   AU        0.568536    0.857993    0.273697     0.007504
PT1367   PT        0.602475    0.791993    0.319887     0.004505
AU1368   AU        0.602506    0.826348    0.355105     0.007504
PT1369   PT        0.636854    0.790575    0.354743     0.004505
PT1370   PT        0.285816    0.094155    0.388585     0.004505
PT1371   PT        0.323890    0.093784    0.424975     0.004505
PT1372   PT        0.359289    0.096538    0.392353     0.004505
AU1373   AU        0.392142    0.096681    0.426299     0.007504
AU1374   AU        0.423679    0.060636    0.425464     0.007504
AU1375   AU        0.427790    0.094267    0.392478     0.007504
PT1376   PT        0.463601    0.059136    0.393705     0.004505
AU1377   AU        0.464466    0.094579    0.423992     0.007504
AU1378   AU        0.499394    0.062147    0.424490     0.007504
AU1379   AU        0.499860    0.097073    0.391774     0.007504
AU1380   AU        0.534545    0.096879    0.425870     0.007504
AU1381   AU        0.568867    0.094432    0.388454     0.007504
PT1382   PT        0.603473    0.093758    0.423573     0.004505
AU1383   AU        0.641568    0.093580    0.391515     0.007504
PT1384   PT        0.180192    0.160693    0.421183     0.004505
AU1385   AU        0.212903    0.125810    0.429233     0.007504
AU1386   AU        0.214856    0.162556    0.390458     0.007504
AU1387   AU        0.251334    0.128645    0.386736     0.007504
AU1388   AU        0.250435    0.161323    0.424632     0.007504
AU1389   AU        0.286936    0.126354    0.428314     0.007504
PT1390   PT        0.289477    0.165044    0.392356     0.004505
AU1391   AU        0.323974    0.129600    0.392456     0.007504
AU1392   AU        0.323089    0.163992    0.428448     0.007504
AU1393   AU        0.358185    0.131473    0.426298     0.007504
AU1394   AU        0.360302    0.164738    0.391706     0.007504
PT1395   PT        0.397483    0.129547    0.391913     0.004505
PT1396   PT        0.395031    0.165527    0.425102     0.004505
PT1397   PT        0.431840    0.131288    0.427942     0.004505
PT1398   PT        0.429559    0.163737    0.392915     0.004505
PT1399   PT        0.467009    0.128694    0.390515     0.004505
PT1400   PT        0.464543    0.165032    0.426987     0.004505
PT1401   PT        0.500709    0.132205    0.426635     0.004505
PT1402   PT        0.499577    0.165854    0.392950     0.004505
AU1403   AU        0.535952    0.130447    0.388570     0.007504
AU1404   AU        0.536471    0.165982    0.427169     0.007504
PT1405   PT        0.568954    0.132191    0.423544     0.004505
PT1406   PT        0.572394    0.166410    0.391355     0.004505
PT1407   PT        0.606075    0.127706    0.388932     0.004505
PT1408   PT        0.605672    0.165488    0.427278     0.004505
AU1409   AU        0.640454    0.127408    0.426983     0.007504
AU1410   AU        0.641483    0.163653    0.390611     0.007504
AU1411   AU        0.677047    0.130191    0.392589     0.007504
PT1412   PT        0.675822    0.164594    0.426848     0.004505
PT1413   PT        0.714918    0.129057    0.424655     0.004505
AU1414   AU        0.711292    0.164111    0.392056     0.007504
AU1415   AU        0.750151    0.163830    0.424711     0.007504
AU1416   AU        0.063978    0.232997    0.390908     0.007504
PT1417   PT        0.145739    0.191984    0.421834     0.004505
AU1418   AU        0.143759    0.229559    0.390125     0.007504
AU1419   AU        0.180212    0.195418    0.387689     0.007504
AU1420   AU        0.179498    0.230179    0.425272     0.007504
PT1421   PT        0.215285    0.196605    0.425761     0.004505
PT1422   PT        0.219196    0.231249    0.388981     0.004505
AU1423   AU        0.253887    0.196550    0.392041     0.007504
AU1424   AU        0.254685    0.230318    0.425553     0.007504
AU1425   AU        0.289681    0.198917    0.429748     0.007504
AU1426   AU        0.290860    0.230290    0.390250     0.007504
AU1427   AU        0.323553    0.197732    0.393166     0.007504
AU1428   AU        0.324835    0.230949    0.425988     0.007504
PT1429   PT        0.359940    0.197504    0.425544     0.004505
AU1430   AU        0.360689    0.228801    0.392456     0.007504
PT1431   PT        0.395635    0.198208    0.391937     0.004505
AU1432   AU        0.395193    0.229776    0.426964     0.007504
AU1433   AU        0.429799    0.196637    0.427369     0.007504
AU1434   AU        0.431629    0.229926    0.390609     0.007504
PT1435   PT        0.465383    0.197883    0.392581     0.004505
PT1436   PT        0.466182    0.229887    0.426908     0.004505
PT1437   PT        0.500271    0.198076    0.427217     0.004505
PT1438   PT        0.500242    0.230168    0.392709     0.004505
PT1439   PT        0.534697    0.197075    0.391630     0.004505
PT1440   PT        0.535931    0.231304    0.426450     0.004505
PT1441   PT        0.570179    0.199116    0.425731     0.004505
PT1442   PT        0.569164    0.230484    0.391017     0.004505
AU1443   AU        0.603711    0.197860    0.390912     0.007504
PT1444   PT        0.606572    0.230559    0.425517     0.004505
PT1445   PT        0.641117    0.196505    0.427285     0.004505
PT1446   PT        0.639509    0.229175    0.392121     0.004505
PT1447   PT        0.676737    0.198303    0.393570     0.004505
PT1448   PT        0.675003    0.232129    0.427475     0.004505
AU1449   AU        0.711846    0.197644    0.428656     0.007504
PT1450   PT        0.709974    0.229932    0.393452     0.004505
AU1451   AU        0.745588    0.196609    0.392162     0.007504
AU1452   AU        0.744820    0.230095    0.426454     0.007504
AU1453   AU        0.783249    0.197573    0.429338     0.007504
AU1454   AU        0.784880    0.226816    0.390514     0.007504
AU1455   AU        0.815396    0.228740    0.429833     0.007504
PT1456   PT        0.073095    0.295479    0.392025     0.004505
PT1457   PT        0.108848    0.260498    0.391212     0.004505
AU1458   AU        0.107221    0.296630    0.427548     0.007504
AU1459   AU        0.147247    0.264352    0.425106     0.007504
PT1460   PT        0.144027    0.297071    0.390046     0.004505
PT1461   PT        0.181994    0.263696    0.389059     0.004505
AU1462   AU        0.181676    0.297850    0.425303     0.007504
PT1463   PT        0.215628    0.264974    0.425972     0.004505
PT1464   PT        0.218726    0.295934    0.392135     0.004505
AU1465   AU        0.253778    0.263725    0.392530     0.007504
AU1466   AU        0.255051    0.295732    0.426309     0.007504
AU1467   AU        0.290894    0.262918    0.425788     0.007504
AU1468   AU        0.288844    0.296445    0.390965     0.007504
PT1469   PT        0.325822    0.263616    0.391688     0.004505
PT1470   PT        0.324879    0.295372    0.426276     0.004505
PT1471   PT        0.359334    0.262480    0.425752     0.004505
AU1472   AU        0.361740    0.296208    0.391801     0.007504
PT1473   PT        0.395098    0.262811    0.393382     0.004505
AU1474   AU        0.397727    0.295333    0.428934     0.007504
AU1475   AU        0.430877    0.261736    0.426403     0.007504
AU1476   AU        0.430943    0.296386    0.391862     0.007504
PT1477   PT        0.466819    0.263259    0.391796     0.004505
PT1478   PT        0.465122    0.296505    0.427023     0.004505
AU1479   AU        0.499266    0.263070    0.426199     0.007504
PT1480   PT        0.499992    0.295804    0.390364     0.004505
PT1481   PT        0.534029    0.263129    0.390691     0.004505
PT1482   PT        0.534593    0.295297    0.425472     0.004505
PT1483   PT        0.571030    0.262563    0.427699     0.004505
PT1484   PT        0.569440    0.296572    0.391702     0.004505
PT1485   PT        0.603615    0.263790    0.391877     0.004505
PT1486   PT        0.605144    0.297270    0.426689     0.004505
PT1487   PT        0.640631    0.263685    0.426681     0.004505
PT1488   PT        0.640736    0.294879    0.391315     0.004505
PT1489   PT        0.675587    0.263593    0.392521     0.004505
PT1490   PT        0.675214    0.295758    0.426816     0.004505
PT1491   PT        0.709967    0.262689    0.427714     0.004505
AU1492   AU        0.710162    0.295532    0.391900     0.007504
PT1493   PT        0.745474    0.261349    0.392336     0.004505
AU1494   AU        0.745489    0.296033    0.427301     0.007504
AU1495   AU        0.782131    0.260675    0.424616     0.007504
PT1496   PT        0.781580    0.294934    0.392577     0.004505
AU1497   AU        0.819482    0.262900    0.391673     0.007504
PT1498   PT        0.817198    0.293722    0.430135     0.004505
AU1499   AU        0.854742    0.294937    0.388552     0.007504
PT1500   PT        0.069827    0.328538    0.427453     0.004505
PT1501   PT        0.070895    0.361363    0.390902     0.004505
PT1502   PT        0.110387    0.328470    0.393224     0.004505
PT1503   PT        0.109783    0.359944    0.425939     0.004505
PT1504   PT        0.147297    0.329413    0.426568     0.004505
AU1505   AU        0.145668    0.362267    0.390816     0.007504
AU1506   AU        0.183631    0.329007    0.391307     0.007504
PT1507   PT        0.185636    0.360759    0.425262     0.004505
AU1508   AU        0.218261    0.327929    0.427172     0.007504
AU1509   AU        0.218887    0.359917    0.391170     0.007504
PT1510   PT        0.252931    0.326903    0.392737     0.004505
AU1511   AU        0.255717    0.362011    0.426448     0.007504
AU1512   AU        0.288752    0.326896    0.427396     0.007504
AU1513   AU        0.289958    0.360544    0.390913     0.007504
PT1514   PT        0.325066    0.329165    0.392239     0.004505
AU1515   AU        0.325254    0.359577    0.425998     0.007504
PT1516   PT        0.360549    0.328735    0.425937     0.004505
PT1517   PT        0.360983    0.360758    0.390957     0.004505
PT1518   PT        0.396046    0.328247    0.392764     0.004505
PT1519   PT        0.396653    0.361572    0.425551     0.004505
AU1520   AU        0.430503    0.328602    0.427281     0.007504
PT1521   PT        0.428778    0.361707    0.391286     0.004505
PT1522   PT        0.465981    0.329053    0.391129     0.004505
PT1523   PT        0.464777    0.362364    0.424455     0.004505
PT1524   PT        0.500245    0.329010    0.427536     0.004505
AU1525   AU        0.499768    0.360841    0.391015     0.007504
PT1526   PT        0.534497    0.329024    0.390871     0.004505
PT1527   PT        0.537259    0.361380    0.426071     0.004505
PT1528   PT        0.570467    0.329476    0.426727     0.004505
PT1529   PT        0.570995    0.360351    0.390334     0.004505
PT1530   PT        0.604993    0.327664    0.390571     0.004505
PT1531   PT        0.604096    0.361775    0.427021     0.004505
PT1532   PT        0.639147    0.329113    0.425360     0.004505
PT1533   PT        0.640626    0.361783    0.390389     0.004505
PT1534   PT        0.675951    0.328543    0.393204     0.004505
PT1535   PT        0.674122    0.362349    0.428324     0.004505
PT1536   PT        0.709443    0.327995    0.426968     0.004505
PT1537   PT        0.708968    0.361945    0.392063     0.004505
PT1538   PT        0.743626    0.329808    0.391973     0.004505
AU1539   AU        0.744162    0.361429    0.426546     0.007504
PT1540   PT        0.780591    0.326694    0.429363     0.004505
AU1541   AU        0.780872    0.360659    0.392738     0.007504
PT1542   PT        0.815616    0.328425    0.392981     0.004505
PT1543   PT        0.816178    0.360784    0.425362     0.004505
PT1544   PT        0.849972    0.327539    0.427532     0.004505
AU1545   AU        0.852866    0.359471    0.390817     0.007504
AU1546   AU        0.034226    0.424080    0.422421     0.007504
AU1547   AU        0.075554    0.396010    0.425346     0.007504
AU1548   AU        0.074274    0.425937    0.389550     0.007504
AU1549   AU        0.109278    0.393900    0.388843     0.007504
PT1550   PT        0.112285    0.426897    0.425940     0.004505
PT1551   PT        0.147610    0.392872    0.426789     0.004505
AU1552   AU        0.147187    0.426856    0.390549     0.007504
PT1553   PT        0.183870    0.392734    0.390764     0.004505
AU1554   AU        0.182879    0.423746    0.428892     0.007504
AU1555   AU        0.217701    0.394610    0.426602     0.007504
PT1556   PT        0.218625    0.426602    0.392890     0.004505
AU1557   AU        0.254607    0.393374    0.389829     0.007504
PT1558   PT        0.253861    0.427187    0.426772     0.004505
AU1559   AU        0.289421    0.393847    0.426273     0.007504
PT1560   PT        0.289603    0.426628    0.391836     0.004505
PT1561   PT        0.326422    0.393498    0.389898     0.004505
AU1562   AU        0.326190    0.425276    0.424939     0.007504
AU1563   AU        0.360903    0.394540    0.426692     0.007504
AU1564   AU        0.359748    0.427148    0.390409     0.007504
AU1565   AU        0.396969    0.394112    0.390548     0.007504
PT1566   PT        0.394992    0.426425    0.428026     0.004505
PT1567   PT        0.430653    0.393696    0.425312     0.004505
AU1568   AU        0.430893    0.425172    0.391889     0.007504
PT1569   PT        0.465560    0.394120    0.390403     0.004505
AU1570   AU        0.463771    0.427283    0.426053     0.007504
PT1571   PT        0.500503    0.393690    0.427199     0.004505
PT1572   PT        0.501131    0.427847    0.392125     0.004505
AU1573   AU        0.535381    0.394296    0.390512     0.007504
PT1574   PT        0.534355    0.425433    0.427521     0.004505
PT1575   PT        0.570440    0.394001    0.425846     0.004505
PT1576   PT        0.569837    0.427772    0.391846     0.004505
PT1577   PT        0.605904    0.393123    0.391472     0.004505
PT1578   PT        0.603454    0.425963    0.426602     0.004505
PT1579   PT        0.640083    0.393529    0.427436     0.004505
PT1580   PT        0.640136    0.426743    0.391378     0.004505
AU1581   AU        0.674094    0.394647    0.392615     0.007504
PT1582   PT        0.676320    0.427517    0.427051     0.004505
PT1583   PT        0.710246    0.393453    0.427150     0.004505
PT1584   PT        0.711706    0.424925    0.391824     0.004505
PT1585   PT        0.745672    0.394395    0.391653     0.004505
AU1586   AU        0.744765    0.426752    0.426708     0.007504
AU1587   AU        0.781512    0.393337    0.426864     0.007504
PT1588   PT        0.781029    0.426101    0.391541     0.004505
PT1589   PT        0.816846    0.392836    0.391790     0.004505
PT1590   PT        0.815082    0.425155    0.426333     0.004505
AU1591   AU        0.850589    0.394051    0.426132     0.007504
AU1592   AU        0.850594    0.424845    0.392149     0.007504
AU1593   AU        0.889917    0.428190    0.426899     0.007504
AU1594   AU        0.036506    0.457588    0.390037     0.007504
AU1595   AU        0.036862    0.494220    0.423558     0.007504
PT1596   PT        0.072825    0.459698    0.424125     0.004505
PT1597   PT        0.071805    0.493173    0.390196     0.004505
AU1598   AU        0.110888    0.459085    0.390097     0.007504
AU1599   AU        0.109636    0.494069    0.428458     0.007504
PT1600   PT        0.146399    0.463124    0.427648     0.004505
PT1601   PT        0.145351    0.494704    0.390486     0.004505
AU1602   AU        0.183662    0.460327    0.394482     0.007504
AU1603   AU        0.184056    0.494418    0.427058     0.007504
PT1604   PT        0.218428    0.460056    0.426081     0.004505
AU1605   AU        0.218248    0.492326    0.391697     0.007504
PT1606   PT        0.254061    0.458826    0.389898     0.004505
AU1607   AU        0.254294    0.492491    0.425496     0.007504
AU1608   AU        0.289069    0.459747    0.426805     0.007504
PT1609   PT        0.289361    0.493178    0.392431     0.004505
AU1610   AU        0.324171    0.459391    0.391480     0.007504
AU1611   AU        0.326962    0.492862    0.426860     0.007504
PT1612   PT        0.358230    0.459430    0.426071     0.004505
PT1613   PT        0.359362    0.493525    0.392021     0.004505
AU1614   AU        0.396106    0.458499    0.391437     0.007504
PT1615   PT        0.395614    0.490997    0.425678     0.004505
PT1616   PT        0.430486    0.458742    0.425365     0.004505
AU1617   AU        0.429990    0.491887    0.390900     0.007504
AU1618   AU        0.462802    0.458431    0.389397     0.007504
PT1619   PT        0.464585    0.493567    0.425675     0.004505
PT1620   PT        0.499489    0.461388    0.426725     0.004505
AU1621   AU        0.499569    0.490445    0.391195     0.007504
AU1622   AU        0.534582    0.458866    0.391337     0.007504
AU1623   AU        0.535410    0.493606    0.425395     0.007504
PT1624   PT        0.570363    0.459690    0.427434     0.004505
AU1625   AU        0.570128    0.491102    0.391445     0.007504
AU1626   AU        0.604734    0.460214    0.391590     0.007504
AU1627   AU        0.603080    0.492418    0.425852     0.007504
AU1628   AU        0.640328    0.458786    0.427187     0.007504
PT1629   PT        0.639219    0.493025    0.391044     0.004505
AU1630   AU        0.675837    0.459971    0.391016     0.007504
AU1631   AU        0.676244    0.492999    0.425446     0.007504
PT1632   PT        0.709379    0.459883    0.426720     0.004505
AU1633   AU        0.709397    0.493882    0.391598     0.007504
PT1634   PT        0.745191    0.460973    0.392036     0.004505
PT1635   PT        0.743736    0.491948    0.427397     0.004505
AU1636   AU        0.780335    0.458460    0.425235     0.007504
AU1637   AU        0.778820    0.493003    0.391230     0.007504
AU1638   AU        0.816391    0.459167    0.389990     0.007504
AU1639   AU        0.815216    0.491148    0.424847     0.007504
AU1640   AU        0.853204    0.457497    0.428676     0.007504
PT1641   PT        0.855412    0.491887    0.392299     0.004505
PT1642   PT        0.891559    0.490710    0.353067     0.004505
PT1643   PT        0.890304    0.495933    0.424127     0.004505
PT1644   PT        0.072266    0.527201    0.423705     0.004505
AU1645   AU        0.070124    0.559402    0.391021     0.007504
AU1646   AU        0.109418    0.525043    0.390699     0.007504
PT1647   PT        0.110777    0.560542    0.425058     0.004505
PT1648   PT        0.145254    0.528449    0.424415     0.004505
AU1649   AU        0.147764    0.558094    0.388070     0.007504
AU1650   AU        0.185263    0.525535    0.390783     0.007504
PT1651   PT        0.182522    0.558202    0.425092     0.004505
AU1652   AU        0.218486    0.527433    0.426030     0.007504
PT1653   PT        0.218673    0.559975    0.391359     0.004505
AU1654   AU        0.252179    0.526246    0.391009     0.007504
PT1655   PT        0.255408    0.557516    0.426965     0.004505
PT1656   PT        0.288613    0.523899    0.426607     0.004505
AU1657   AU        0.289020    0.556630    0.390762     0.007504
PT1658   PT        0.323883    0.524042    0.391004     0.004505
PT1659   PT        0.323299    0.557936    0.425608     0.004505
PT1660   PT        0.360818    0.526337    0.426526     0.004505
PT1661   PT        0.360820    0.556646    0.392330     0.004505
PT1662   PT        0.395172    0.523632    0.392270     0.004505
PT1663   PT        0.395183    0.555941    0.425535     0.004505
PT1664   PT        0.431533    0.525370    0.424864     0.004505
PT1665   PT        0.430704    0.558023    0.389988     0.004505
PT1666   PT        0.464978    0.524374    0.389923     0.004505
PT1667   PT        0.464215    0.556621    0.425635     0.004505
PT1668   PT        0.499622    0.525454    0.425132     0.004505
PT1669   PT        0.498270    0.557118    0.391640     0.004505
PT1670   PT        0.534181    0.523328    0.389289     0.004505
PT1671   PT        0.535596    0.558595    0.427288     0.004505
PT1672   PT        0.569629    0.525770    0.426650     0.004505
PT1673   PT        0.570174    0.557913    0.391253     0.004505
PT1674   PT        0.603631    0.523425    0.390951     0.004505
PT1675   PT        0.604684    0.556674    0.426809     0.004505
PT1676   PT        0.639247    0.525445    0.425776     0.004505
PT1677   PT        0.641117    0.557287    0.391356     0.004505
PT1678   PT        0.675284    0.525753    0.391651     0.004505
PT1679   PT        0.675751    0.556935    0.426165     0.004505
AU1680   AU        0.711568    0.524971    0.427021     0.007504
AU1681   AU        0.711866    0.558611    0.392952     0.007504
AU1682   AU        0.745366    0.525526    0.391327     0.007504
PT1683   PT        0.746400    0.557043    0.426256     0.004505
PT1684   PT        0.780289    0.524865    0.427215     0.004505
AU1685   AU        0.781218    0.557239    0.392880     0.007504
AU1686   AU        0.816976    0.526430    0.393223     0.007504
AU1687   AU        0.814466    0.557944    0.428108     0.007504
PT1688   PT        0.851011    0.523146    0.427368     0.004505
AU1689   AU        0.851780    0.558424    0.392399     0.007504
PT1690   PT        0.073632    0.592348    0.425528     0.004505
PT1691   PT        0.072150    0.623992    0.387589     0.004505
PT1692   PT        0.109647    0.590064    0.387025     0.004505
AU1693   AU        0.109985    0.623349    0.422707     0.007504
PT1694   PT        0.147882    0.590625    0.426607     0.004505
AU1695   AU        0.145174    0.623779    0.389076     0.007504
AU1696   AU        0.183569    0.592976    0.391665     0.007504
AU1697   AU        0.182747    0.624009    0.425187     0.007504
AU1698   AU        0.219675    0.589582    0.426289     0.007504
PT1699   PT        0.219433    0.624181    0.391650     0.004505
PT1700   PT        0.256231    0.590033    0.391386     0.004505
PT1701   PT        0.253739    0.624526    0.429064     0.004505
PT1702   PT        0.290974    0.590381    0.426153     0.004505
PT1703   PT        0.287730    0.624570    0.392238     0.004505
AU1704   AU        0.322631    0.589941    0.390535     0.007504
PT1705   PT        0.324600    0.624679    0.425864     0.004505
AU1706   AU        0.359211    0.590993    0.424777     0.007504
PT1707   PT        0.358150    0.623280    0.389493     0.004505
PT1708   PT        0.395288    0.592742    0.390991     0.004505
AU1709   AU        0.396142    0.624242    0.424980     0.007504
PT1710   PT        0.429453    0.589490    0.427010     0.004505
PT1711   PT        0.431163    0.623016    0.390408     0.004505
PT1712   PT        0.464261    0.591261    0.390862     0.004505
PT1713   PT        0.467358    0.623580    0.425844     0.004505
AU1714   AU        0.500218    0.590646    0.426401     0.007504
PT1715   PT        0.501821    0.623051    0.391290     0.004505
PT1716   PT        0.535221    0.590126    0.393321     0.004505
PT1717   PT        0.534899    0.623382    0.428392     0.004505
PT1718   PT        0.570391    0.590450    0.425609     0.004505
PT1719   PT        0.568408    0.622716    0.391532     0.004505
PT1720   PT        0.605364    0.589522    0.390722     0.004505
AU1721   AU        0.605641    0.623022    0.426621     0.007504
PT1722   PT        0.642517    0.591154    0.425303     0.004505
AU1723   AU        0.641540    0.623498    0.391703     0.007504
AU1724   AU        0.676595    0.591736    0.390832     0.007504
PT1725   PT        0.677738    0.624417    0.425740     0.004505
PT1726   PT        0.710889    0.590466    0.426112     0.004505
PT1727   PT        0.711630    0.621544    0.390850     0.004505
AU1728   AU        0.745889    0.590478    0.391303     0.007504
PT1729   PT        0.744792    0.623425    0.426522     0.004505
AU1730   AU        0.780878    0.591162    0.424984     0.007504
PT1731   PT        0.779636    0.623595    0.392124     0.004505
PT1732   PT        0.816248    0.590055    0.393382     0.004505
AU1733   AU        0.816093    0.625508    0.426781     0.007504
AU1734   AU        0.850590    0.590795    0.425745     0.007504
AU1735   AU        0.855885    0.621201    0.391048     0.007504
AU1736   AU        0.110322    0.657573    0.391883     0.007504
AU1737   AU        0.110646    0.692047    0.425887     0.007504
PT1738   PT        0.143816    0.659110    0.426186     0.004505
PT1739   PT        0.143603    0.692951    0.389874     0.004505
PT1740   PT        0.178068    0.656307    0.391111     0.004505
AU1741   AU        0.176831    0.690602    0.426743     0.007504
AU1742   AU        0.216294    0.658266    0.425676     0.007504
AU1743   AU        0.214533    0.690656    0.388121     0.007504
AU1744   AU        0.252601    0.659598    0.388228     0.007504
AU1745   AU        0.251875    0.689204    0.425894     0.007504
AU1746   AU        0.287926    0.658393    0.425425     0.007504
AU1747   AU        0.288960    0.688843    0.388722     0.007504
PT1748   PT        0.323711    0.657693    0.388983     0.004505
PT1749   PT        0.324546    0.687236    0.424829     0.004505
AU1750   AU        0.359457    0.655584    0.425090     0.007504
AU1751   AU        0.360580    0.687095    0.391063     0.007504
PT1752   PT        0.394050    0.656306    0.389700     0.004505
PT1753   PT        0.393458    0.689416    0.427304     0.004505
AU1754   AU        0.427720    0.657539    0.425998     0.007504
AU1755   AU        0.429623    0.690351    0.389596     0.007504
AU1756   AU        0.465818    0.655303    0.391987     0.007504
AU1757   AU        0.462812    0.690297    0.425476     0.007504
AU1758   AU        0.499938    0.657164    0.425502     0.007504
PT1759   PT        0.500078    0.688792    0.392290     0.004505
PT1760   PT        0.535633    0.655968    0.391762     0.004505
PT1761   PT        0.535024    0.687329    0.426997     0.004505
PT1762   PT        0.571446    0.655465    0.426803     0.004505
AU1763   AU        0.570072    0.689532    0.391664     0.007504
PT1764   PT        0.605774    0.654450    0.391432     0.004505
AU1765   AU        0.605748    0.689284    0.426849     0.007504
AU1766   AU        0.642426    0.655984    0.425475     0.007504
AU1767   AU        0.641507    0.689643    0.391616     0.007504
PT1768   PT        0.676480    0.655733    0.391070     0.004505
PT1769   PT        0.675882    0.688314    0.427687     0.004505
AU1770   AU        0.712579    0.656456    0.425739     0.007504
AU1771   AU        0.708994    0.690380    0.393387     0.007504
PT1772   PT        0.743333    0.655489    0.392041     0.004505
AU1773   AU        0.746624    0.690251    0.425098     0.007504
PT1774   PT        0.780304    0.658874    0.426535     0.004505
PT1775   PT        0.779480    0.686988    0.390832     0.004505
PT1776   PT        0.818311    0.655028    0.392125     0.004505
PT1777   PT        0.818636    0.690392    0.423094     0.004505
AU1778   AU        0.143138    0.727337    0.426344     0.007504
AU1779   AU        0.179688    0.724502    0.391812     0.007504
AU1780   AU        0.179057    0.790275    0.385749     0.007504
AU1781   AU        0.215302    0.723734    0.424469     0.007504
AU1782   AU        0.213750    0.757847    0.389092     0.007504
AU1783   AU        0.249283    0.722927    0.389934     0.007504
AU1784   AU        0.249112    0.755312    0.425461     0.007504
PT1785   PT        0.287900    0.722359    0.420890     0.004505
AU1786   AU        0.285714    0.759173    0.392338     0.007504
AU1787   AU        0.323812    0.721334    0.387603     0.007504
AU1788   AU        0.324793    0.755282    0.424706     0.007504
AU1789   AU        0.358609    0.723404    0.426301     0.007504
AU1790   AU        0.355633    0.755891    0.388193     0.007504
PT1791   PT        0.394220    0.720955    0.390099     0.004505
AU1792   AU        0.394019    0.754384    0.423061     0.007504
AU1793   AU        0.428790    0.722631    0.423876     0.007504
PT1794   PT        0.431703    0.754737    0.391239     0.004505
AU1795   AU        0.465081    0.722308    0.389964     0.007504
PT1796   PT        0.465480    0.752452    0.425224     0.004505
AU1797   AU        0.500509    0.723050    0.426859     0.007504
PT1798   PT        0.500440    0.753766    0.390495     0.004505
PT1799   PT        0.535282    0.721111    0.390111     0.004505
AU1800   AU        0.533811    0.756687    0.428372     0.007504
AU1801   AU        0.568840    0.722705    0.426829     0.007504
AU1802   AU        0.569568    0.756485    0.390560     0.007504
AU1803   AU        0.604337    0.724954    0.391828     0.007504
AU1804   AU        0.603482    0.758125    0.427017     0.007504
PT1805   PT        0.640937    0.723027    0.425356     0.004505
PT1806   PT        0.638615    0.758688    0.390316     0.004505
AU1807   AU        0.675161    0.723917    0.391877     0.007504
AU1808   AU        0.676104    0.757463    0.423866     0.007504
AU1809   AU        0.709478    0.724066    0.426821     0.007504
AU1810   AU        0.711427    0.757124    0.390995     0.007504
AU1811   AU        0.744370    0.722717    0.390659     0.007504
AU1812   AU        0.747577    0.758176    0.425795     0.007504
PT1813   PT        0.787154    0.725282    0.426583     0.004505
AU1814   AU        0.215008    0.790031    0.427899     0.007504
AU1815   AU        0.247981    0.791520    0.389058     0.007504
AU1816   AU        0.282649    0.792255    0.426979     0.007504
PT1817   PT        0.283442    0.823212    0.389317     0.004505
AU1818   AU        0.320463    0.789192    0.390787     0.007504
AU1819   AU        0.319393    0.822295    0.427838     0.007504
AU1820   AU        0.357972    0.791538    0.427344     0.007504
AU1821   AU        0.355776    0.826610    0.394119     0.007504
PT1822   PT        0.393353    0.790305    0.391121     0.004505
AU1823   AU        0.394080    0.825415    0.425086     0.007504
PT1824   PT        0.428606    0.788830    0.422797     0.004505
AU1825   AU        0.430602    0.823807    0.392207     0.007504
PT1826   PT        0.464271    0.788772    0.391225     0.004505
PT1827   PT        0.464244    0.825088    0.426351     0.004505
PT1828   PT        0.501308    0.788991    0.426811     0.004505
AU1829   AU        0.498231    0.820465    0.392366     0.007504
AU1830   AU        0.534681    0.789994    0.389471     0.007504
AU1831   AU        0.534338    0.822314    0.427114     0.007504
AU1832   AU        0.568939    0.788145    0.428170     0.007504
PT1833   PT        0.570559    0.824890    0.393915     0.004505
AU1834   AU        0.603155    0.791615    0.392077     0.007504
AU1835   AU        0.607550    0.858766    0.387019     0.007504
AU1836   AU        0.638658    0.790633    0.426469     0.007504
PT1837   PT        0.639040    0.822586    0.392309     0.004505
PT1838   PT        0.675749    0.793444    0.388896     0.004505
PT1839   PT        0.712636    0.789937    0.425565     0.004505
PT1840   PT        0.431874    0.860148    0.425794     0.004505
PT1841   PT        0.469178    0.858731    0.392541     0.004505
AU1842   AU        0.498812    0.856154    0.423891     0.007504
AU1843   AU        0.285283    0.094324    0.465817     0.007504
AU1844   AU        0.321771    0.098276    0.497375     0.007504
AU1845   AU        0.356665    0.099672    0.460723     0.007504
AU1846   AU        0.394168    0.060571    0.463554     0.007504
PT1847   PT        0.389907    0.096233    0.492764     0.004505
PT1848   PT        0.432492    0.061601    0.493988     0.004505
AU1849   AU        0.429060    0.093106    0.459086     0.007504
PT1850   PT        0.464495    0.060220    0.458887     0.004505
PT1851   PT        0.464905    0.094580    0.497110     0.004505
PT1852   PT        0.499669    0.061879    0.492772     0.004505
AU1853   AU        0.498610    0.094947    0.459176     0.007504
AU1854   AU        0.535588    0.062809    0.456915     0.007504
AU1855   AU        0.535875    0.095296    0.496874     0.007504
PT1856   PT        0.571720    0.093760    0.462536     0.004505
AU1857   AU        0.608117    0.095255    0.496023     0.007504
AU1858   AU        0.640354    0.091990    0.459604     0.007504
AU1859   AU        0.176889    0.163465    0.498941     0.007504
AU1860   AU        0.212250    0.130202    0.494740     0.007504
AU1861   AU        0.214840    0.162492    0.460369     0.007504
PT1862   PT        0.250224    0.127499    0.464052     0.004505
AU1863   AU        0.248168    0.164828    0.496066     0.007504
PT1864   PT        0.286520    0.130971    0.496298     0.004505
AU1865   AU        0.286437    0.161062    0.459415     0.007504
AU1866   AU        0.321498    0.128459    0.460210     0.007504
AU1867   AU        0.324253    0.165747    0.495636     0.007504
PT1868   PT        0.358603    0.132978    0.496012     0.004505
AU1869   AU        0.361752    0.164656    0.460252     0.007504
PT1870   PT        0.393924    0.131477    0.461520     0.004505
PT1871   PT        0.394557    0.166734    0.497706     0.004505
AU1872   AU        0.428625    0.129251    0.496817     0.007504
PT1873   PT        0.428871    0.165010    0.461903     0.004505
AU1874   AU        0.464452    0.128126    0.462540     0.007504
PT1875   PT        0.466583    0.162421    0.497195     0.004505
AU1876   AU        0.501534    0.130603    0.494359     0.007504
PT1877   PT        0.500429    0.164794    0.461090     0.004505
AU1878   AU        0.537969    0.129721    0.460539     0.007504
PT1879   PT        0.537364    0.162639    0.497750     0.004505
AU1880   AU        0.572286    0.128103    0.496956     0.007504
PT1881   PT        0.570336    0.164781    0.460812     0.004505
PT1882   PT        0.604982    0.130933    0.460125     0.004505
AU1883   AU        0.605423    0.165360    0.496367     0.007504
AU1884   AU        0.640725    0.130521    0.494603     0.007504
PT1885   PT        0.642496    0.164431    0.462248     0.004505
PT1886   PT        0.674998    0.124314    0.461844     0.004505
PT1887   PT        0.679949    0.161791    0.495498     0.004505
AU1888   AU        0.712494    0.126032    0.495566     0.007504
PT1889   PT        0.717391    0.160571    0.459767     0.004505
AU1890   AU        0.746248    0.162040    0.499745     0.007504
PT1891   PT        0.107246    0.229771    0.494372     0.004505
AU1892   AU        0.145453    0.199856    0.495120     0.007504
AU1893   AU        0.145130    0.228416    0.457009     0.007504
AU1894   AU        0.181139    0.193367    0.458745     0.007504
AU1895   AU        0.176314    0.228426    0.494138     0.007504
AU1896   AU        0.211932    0.197503    0.495219     0.007504
AU1897   AU        0.215683    0.228677    0.461789     0.007504
PT1898   PT        0.251323    0.194968    0.460192     0.004505
PT1899   PT        0.252269    0.229724    0.496937     0.004505
AU1900   AU        0.288281    0.196399    0.494683     0.007504
AU1901   AU        0.291308    0.231681    0.462105     0.007504
PT1902   PT        0.324755    0.198858    0.461257     0.004505
AU1903   AU        0.325019    0.230040    0.496754     0.007504
PT1904   PT        0.359503    0.198575    0.496400     0.004505
PT1905   PT        0.359796    0.229758    0.460297     0.004505
AU1906   AU        0.393774    0.198222    0.462666     0.007504
PT1907   PT        0.396089    0.231803    0.496302     0.004505
PT1908   PT        0.430675    0.198566    0.497331     0.004505
PT1909   PT        0.431754    0.231088    0.462254     0.004505
AU1910   AU        0.464181    0.196610    0.462639     0.007504
PT1911   PT        0.466266    0.231480    0.497736     0.004505
PT1912   PT        0.499286    0.197027    0.497006     0.004505
AU1913   AU        0.501427    0.231472    0.463305     0.007504
AU1914   AU        0.536217    0.198110    0.461600     0.007504
PT1915   PT        0.535121    0.231840    0.496939     0.004505
PT1916   PT        0.571204    0.196420    0.497173     0.004505
AU1917   AU        0.571278    0.229786    0.463459     0.007504
AU1918   AU        0.604517    0.198699    0.460560     0.007504
PT1919   PT        0.604292    0.229323    0.498145     0.004505
AU1920   AU        0.640907    0.198974    0.495829     0.007504
PT1921   PT        0.641223    0.230754    0.460716     0.004505
AU1922   AU        0.675213    0.198443    0.461026     0.007504
PT1923   PT        0.675796    0.231031    0.498832     0.004505
AU1924   AU        0.710536    0.196104    0.497673     0.007504
PT1925   PT        0.709800    0.229652    0.463446     0.004505
PT1926   PT        0.746508    0.196329    0.461723     0.004505
PT1927   PT        0.747699    0.229972    0.497857     0.004505
PT1928   PT        0.783539    0.194154    0.495674     0.004505
PT1929   PT        0.779434    0.232278    0.464196     0.004505
PT1930   PT        0.815590    0.229597    0.497068     0.004505
AU1931   AU        0.070845    0.293350    0.460743     0.007504
PT1932   PT        0.111029    0.261240    0.458406     0.004505
AU1933   AU        0.107730    0.295028    0.495327     0.007504
AU1934   AU        0.143588    0.262401    0.497103     0.007504
AU1935   AU        0.145827    0.297508    0.459749     0.007504
PT1936   PT        0.184324    0.264143    0.463375     0.004505
AU1937   AU        0.182293    0.297013    0.497378     0.007504
PT1938   PT        0.221170    0.263961    0.496624     0.004505
PT1939   PT        0.218912    0.294963    0.460776     0.004505
PT1940   PT        0.255203    0.262707    0.460631     0.004505
PT1941   PT        0.257276    0.295545    0.495261     0.004505
AU1942   AU        0.292344    0.263828    0.496565     0.007504
AU1943   AU        0.291483    0.295721    0.460319     0.007504
AU1944   AU        0.325119    0.263259    0.461742     0.007504
AU1945   AU        0.324954    0.296626    0.496405     0.007504
AU1946   AU        0.360285    0.263023    0.499478     0.007504
AU1947   AU        0.359851    0.295127    0.461505     0.007504
AU1948   AU        0.395098    0.264047    0.460401     0.007504
PT1949   PT        0.396367    0.294771    0.498211     0.004505
PT1950   PT        0.430782    0.263222    0.496243     0.004505
PT1951   PT        0.432547    0.295498    0.463454     0.004505
AU1952   AU        0.465569    0.262552    0.461368     0.007504
AU1953   AU        0.465945    0.295334    0.496996     0.007504
AU1954   AU        0.499134    0.264309    0.496957     0.007504
PT1955   PT        0.499386    0.294685    0.461805     0.004505
PT1956   PT        0.535239    0.264471    0.461974     0.004505
PT1957   PT        0.535191    0.297201    0.495988     0.004505
PT1958   PT        0.569978    0.264201    0.496846     0.004505
PT1959   PT        0.569636    0.295844    0.462457     0.004505
PT1960   PT        0.605321    0.262548    0.461769     0.004505
PT1961   PT        0.605808    0.296847    0.499200     0.004505
PT1962   PT        0.640416    0.260980    0.496620     0.004505
AU1963   AU        0.640231    0.295579    0.461844     0.007504
AU1964   AU        0.675728    0.263511    0.462466     0.007504
AU1965   AU        0.675562    0.296195    0.497723     0.007504
AU1966   AU        0.711310    0.264387    0.496694     0.007504
PT1967   PT        0.711101    0.296743    0.461245     0.004505
AU1968   AU        0.744682    0.263525    0.460919     0.007504
AU1969   AU        0.745765    0.296151    0.496171     0.007504
AU1970   AU        0.780828    0.262256    0.498294     0.007504
PT1971   PT        0.780654    0.293845    0.460912     0.004505
PT1972   PT        0.818510    0.260906    0.463540     0.004505
PT1973   PT        0.814350    0.295538    0.495046     0.004505
PT1974   PT        0.853951    0.296143    0.464964     0.004505
PT1975   PT        0.073930    0.326437    0.498690     0.004505
PT1976   PT        0.073204    0.361321    0.459809     0.004505
PT1977   PT        0.107302    0.327135    0.461899     0.004505
AU1978   AU        0.109965    0.359062    0.497213     0.007504
PT1979   PT        0.142689    0.326075    0.500014     0.004505
AU1980   AU        0.146346    0.357965    0.463314     0.007504
PT1981   PT        0.183740    0.329753    0.462202     0.004505
AU1982   AU        0.179943    0.359910    0.498523     0.007504
AU1983   AU        0.217240    0.328164    0.497019     0.007504
AU1984   AU        0.219397    0.361112    0.463835     0.007504
PT1985   PT        0.256414    0.328549    0.461726     0.004505
AU1986   AU        0.254456    0.360410    0.497042     0.007504
AU1987   AU        0.290839    0.329786    0.495886     0.007504
PT1988   PT        0.289566    0.362102    0.462415     0.004505
AU1989   AU        0.323923    0.328783    0.461250     0.007504
PT1990   PT        0.326846    0.361305    0.496647     0.004505
PT1991   PT        0.361489    0.327995    0.495595     0.004505
PT1992   PT        0.360611    0.361601    0.460840     0.004505
PT1993   PT        0.396313    0.329434    0.461785     0.004505
PT1994   PT        0.395115    0.361194    0.496581     0.004505
PT1995   PT        0.430540    0.328849    0.497339     0.004505
AU1996   AU        0.430909    0.360778    0.461846     0.007504
PT1997   PT        0.465375    0.328934    0.461907     0.004505
PT1998   PT        0.465803    0.362445    0.495574     0.004505
PT1999   PT        0.499562    0.328054    0.496591     0.004505
PT2000   PT        0.501341    0.361706    0.460689     0.004505
PT2001   PT        0.534725    0.329767    0.461569     0.004505
PT2002   PT        0.534959    0.359914    0.496648     0.004505
PT2003   PT        0.570062    0.326219    0.496629     0.004505
AU2004   AU        0.569267    0.359807    0.461762     0.007504
PT2005   PT        0.605242    0.328812    0.461585     0.004505
AU2006   AU        0.605526    0.361996    0.497198     0.007504
PT2007   PT        0.639601    0.329405    0.497756     0.004505
PT2008   PT        0.639815    0.360847    0.462940     0.004505
AU2009   AU        0.673462    0.328288    0.462366     0.007504
PT2010   PT        0.674663    0.361224    0.497437     0.004505
PT2011   PT        0.709350    0.326887    0.496467     0.004505
PT2012   PT        0.709618    0.361607    0.462002     0.004505
AU2013   AU        0.746223    0.329024    0.463129     0.007504
PT2014   PT        0.744410    0.362635    0.495947     0.004505
PT2015   PT        0.779435    0.330356    0.496659     0.004505
AU2016   AU        0.782289    0.362714    0.461333     0.007504
PT2017   PT        0.814782    0.329506    0.463018     0.004505
AU2018   AU        0.814570    0.361035    0.499087     0.007504
AU2019   AU        0.854136    0.329449    0.497856     0.007504
AU2020   AU        0.849789    0.359349    0.463060     0.007504
PT2021   PT        0.038189    0.396076    0.461173     0.004505
PT2022   PT        0.034019    0.431970    0.495973     0.004505
AU2023   AU        0.041750    0.361201    0.495892     0.007504
AU2024   AU        0.072599    0.428833    0.460511     0.007504
AU2025   AU        0.109960    0.392517    0.464492     0.007504
AU2026   AU        0.112681    0.431041    0.496044     0.007504
AU2027   AU        0.147023    0.393952    0.497827     0.007504
PT2028   PT        0.148807    0.426914    0.462988     0.004505
AU2029   AU        0.184177    0.391527    0.463620     0.007504
AU2030   AU        0.181506    0.427400    0.496186     0.007504
AU2031   AU        0.220108    0.394672    0.495615     0.007504
AU2032   AU        0.219793    0.426880    0.461944     0.007504
PT2033   PT        0.254506    0.394957    0.461164     0.004505
AU2034   AU        0.254548    0.427381    0.496328     0.007504
AU2035   AU        0.291167    0.393102    0.497964     0.007504
PT2036   PT        0.290759    0.425012    0.460742     0.004505
PT2037   PT        0.325568    0.393760    0.461936     0.004505
AU2038   AU        0.324320    0.426662    0.496599     0.007504
PT2039   PT        0.361212    0.395053    0.497332     0.004505
PT2040   PT        0.360406    0.427266    0.461385     0.004505
PT2041   PT        0.395846    0.393426    0.463234     0.004505
PT2042   PT        0.395531    0.428299    0.498713     0.004505
AU2043   AU        0.429950    0.393529    0.497629     0.007504
PT2044   PT        0.430371    0.426085    0.461471     0.004505
AU2045   AU        0.465818    0.392688    0.460203     0.007504
PT2046   PT        0.463984    0.426431    0.497773     0.004505
AU2047   AU        0.499179    0.394003    0.497132     0.007504
PT2048   PT        0.498827    0.426781    0.462618     0.004505
PT2049   PT        0.535575    0.394194    0.461177     0.004505
PT2050   PT        0.535395    0.426404    0.496884     0.004505
PT2051   PT        0.570398    0.393539    0.495196     0.004505
AU2052   AU        0.571796    0.426792    0.462105     0.007504
PT2053   PT        0.604699    0.392423    0.461877     0.004505
PT2054   PT        0.605246    0.426080    0.496509     0.004505
PT2055   PT        0.640775    0.394165    0.496849     0.004505
PT2056   PT        0.640264    0.424174    0.461022     0.004505
PT2057   PT        0.674929    0.394889    0.460101     0.004505
PT2058   PT        0.673724    0.426674    0.495837     0.004505
PT2059   PT        0.709378    0.394372    0.496747     0.004505
AU2060   AU        0.711723    0.426345    0.461196     0.007504
PT2061   PT        0.745468    0.394171    0.460910     0.004505
PT2062   PT        0.744505    0.426215    0.496800     0.004505
AU2063   AU        0.778015    0.393944    0.496794     0.007504
PT2064   PT        0.779987    0.426958    0.463218     0.004505
PT2065   PT        0.814476    0.394431    0.461551     0.004505
PT2066   PT        0.814644    0.425417    0.497521     0.004505
AU2067   AU        0.850909    0.391694    0.496033     0.007504
AU2068   AU        0.852935    0.425906    0.462720     0.007504
AU2069   AU        0.889800    0.391623    0.460234     0.007504
AU2070   AU        0.890655    0.423502    0.497331     0.007504
AU2071   AU        0.036116    0.460903    0.456076     0.007504
PT2072   PT        0.034235    0.490754    0.495156     0.004505
PT2073   PT        0.074999    0.460154    0.495812     0.004505
PT2074   PT        0.071362    0.494004    0.458561     0.004505
AU2075   AU        0.110436    0.460186    0.460461     0.007504
PT2076   PT        0.108919    0.493032    0.494072     0.004505
PT2077   PT        0.147472    0.462977    0.495364     0.004505
AU2078   AU        0.147587    0.494897    0.462639     0.007504
AU2079   AU        0.183882    0.459982    0.460822     0.007504
PT2080   PT        0.184083    0.492501    0.497684     0.004505
PT2081   PT        0.219373    0.458474    0.498922     0.004505
AU2082   AU        0.220469    0.491402    0.462050     0.007504
PT2083   PT        0.256120    0.458212    0.460885     0.004505
PT2084   PT        0.257703    0.492365    0.496464     0.004505
PT2085   PT        0.290569    0.458222    0.495034     0.004505
PT2086   PT        0.290701    0.492361    0.461154     0.004505
AU2087   AU        0.324348    0.458978    0.460019     0.007504
PT2088   PT        0.326260    0.490503    0.497119     0.004505
PT2089   PT        0.360101    0.458343    0.496877     0.004505
PT2090   PT        0.359492    0.491614    0.461587     0.004505
AU2091   AU        0.394647    0.459301    0.462351     0.007504
AU2092   AU        0.393970    0.491777    0.495612     0.007504
PT2093   PT        0.431742    0.460419    0.498047     0.004505
PT2094   PT        0.430429    0.492648    0.460813     0.004505
PT2095   PT        0.466297    0.460826    0.461207     0.004505
PT2096   PT        0.465251    0.492518    0.496189     0.004505
AU2097   AU        0.499522    0.460398    0.495289     0.007504
PT2098   PT        0.500828    0.493715    0.461782     0.004505
AU2099   AU        0.534689    0.458742    0.460614     0.007504
AU2100   AU        0.536111    0.491750    0.496721     0.007504
PT2101   PT        0.570912    0.459226    0.496580     0.004505
PT2102   PT        0.569633    0.493371    0.460357     0.004505
PT2103   PT        0.605316    0.459497    0.461060     0.004505
PT2104   PT        0.605098    0.491144    0.494867     0.004505
AU2105   AU        0.640208    0.459669    0.496404     0.007504
AU2106   AU        0.640245    0.493423    0.461421     0.007504
PT2107   PT        0.675432    0.458838    0.462803     0.004505
PT2108   PT        0.675100    0.493664    0.495475     0.004505
PT2109   PT        0.710174    0.458607    0.498056     0.004505
PT2110   PT        0.709891    0.491321    0.462130     0.004505
PT2111   PT        0.745606    0.460600    0.462615     0.004505
PT2112   PT        0.745456    0.492800    0.496642     0.004505
PT2113   PT        0.781163    0.459830    0.497199     0.004505
PT2114   PT        0.779373    0.491163    0.461877     0.004505
PT2115   PT        0.814807    0.458678    0.462431     0.004505
AU2116   AU        0.815796    0.492678    0.497087     0.007504
AU2117   AU        0.852825    0.459889    0.497027     0.007504
AU2118   AU        0.852925    0.491691    0.460228     0.007504
PT2119   PT        0.927409    0.420505    0.457620     0.004505
PT2120   PT        0.889042    0.492570    0.500313     0.004505
PT2121   PT        0.037104    0.528005    0.461935     0.004505
AU2122   AU        0.075494    0.527777    0.493832     0.007504
PT2123   PT        0.070688    0.560417    0.460973     0.004505
PT2124   PT        0.109549    0.528566    0.459395     0.004505
AU2125   AU        0.108756    0.559644    0.494650     0.007504
AU2126   AU        0.146164    0.526338    0.495941     0.007504
AU2127   AU        0.147245    0.559257    0.462379     0.007504
AU2128   AU        0.185289    0.526696    0.461632     0.007504
PT2129   PT        0.186308    0.557469    0.497688     0.004505
PT2130   PT        0.221449    0.524543    0.496296     0.004505
AU2131   AU        0.218753    0.558549    0.460052     0.007504
AU2132   AU        0.254978    0.525194    0.461891     0.007504
PT2133   PT        0.254052    0.558317    0.496484     0.004505
PT2134   PT        0.290400    0.525031    0.496500     0.004505
AU2135   AU        0.287050    0.559015    0.460271     0.007504
PT2136   PT        0.324196    0.526240    0.461431     0.004505
AU2137   AU        0.325385    0.559193    0.496955     0.007504
AU2138   AU        0.359737    0.525574    0.497244     0.007504
AU2139   AU        0.359792    0.559284    0.460693     0.007504
PT2140   PT        0.393888    0.525853    0.462566     0.004505
AU2141   AU        0.394190    0.559543    0.496205     0.007504
AU2142   AU        0.429143    0.525865    0.496723     0.007504
PT2143   PT        0.429531    0.558480    0.462498     0.004505
PT2144   PT        0.465061    0.525471    0.460835     0.004505
AU2145   AU        0.465640    0.558793    0.495677     0.007504
PT2146   PT        0.500945    0.524473    0.496171     0.004505
PT2147   PT        0.501121    0.558602    0.461056     0.004505
PT2148   PT        0.534821    0.526545    0.461593     0.004505
PT2149   PT        0.534684    0.557630    0.496747     0.004505
PT2150   PT        0.570475    0.526035    0.495922     0.004505
PT2151   PT        0.571202    0.556808    0.461928     0.004505
AU2152   AU        0.605244    0.525581    0.462184     0.007504
PT2153   PT        0.605478    0.557393    0.495621     0.004505
PT2154   PT        0.640213    0.524944    0.496275     0.004505
PT2155   PT        0.640991    0.557120    0.462686     0.004505
AU2156   AU        0.674189    0.523010    0.462480     0.007504
PT2157   PT        0.674007    0.557340    0.496368     0.004505
PT2158   PT        0.709606    0.525893    0.496422     0.004505
AU2159   AU        0.710477    0.558241    0.462019     0.007504
PT2160   PT        0.744694    0.525184    0.462253     0.004505
PT2161   PT        0.744322    0.558718    0.496916     0.004505
AU2162   AU        0.780108    0.525355    0.496094     0.007504
PT2163   PT        0.780632    0.556396    0.460874     0.004505
PT2164   PT        0.816204    0.523603    0.460712     0.004505
AU2165   AU        0.817155    0.556985    0.495317     0.007504
AU2166   AU        0.853627    0.526381    0.496964     0.007504
AU2167   AU        0.850927    0.558869    0.460208     0.007504
AU2168   AU        0.888014    0.525030    0.462120     0.007504
PT2169   PT        0.072516    0.594417    0.492842     0.004505
PT2170   PT        0.000714    0.590019    0.499297     0.004505
AU2171   AU        0.109636    0.590443    0.459808     0.007504
AU2172   AU        0.110426    0.626889    0.495890     0.007504
AU2173   AU        0.145116    0.592274    0.497417     0.007504
AU2174   AU        0.145614    0.624781    0.459390     0.007504
AU2175   AU        0.181102    0.592331    0.462903     0.007504
AU2176   AU        0.181433    0.625624    0.498052     0.007504
PT2177   PT        0.218019    0.592716    0.496764     0.004505
PT2178   PT        0.217717    0.624835    0.463019     0.004505
AU2179   AU        0.251886    0.590306    0.461569     0.007504
AU2180   AU        0.252754    0.625358    0.497746     0.007504
AU2181   AU        0.289965    0.590999    0.494949     0.007504
PT2182   PT        0.288401    0.625379    0.461420     0.004505
PT2183   PT        0.322710    0.591662    0.460567     0.004505
PT2184   PT        0.323865    0.623950    0.495633     0.004505
PT2185   PT        0.359174    0.590780    0.495339     0.004505
AU2186   AU        0.358537    0.621732    0.461198     0.007504
PT2187   PT        0.395875    0.590854    0.459984     0.004505
PT2188   PT        0.393534    0.622993    0.496469     0.004505
PT2189   PT        0.430968    0.591140    0.496487     0.004505
PT2190   PT        0.431189    0.623727    0.462001     0.004505
PT2191   PT        0.464904    0.589973    0.463105     0.004505
PT2192   PT        0.464850    0.624435    0.498384     0.004505
PT2193   PT        0.498652    0.591473    0.497217     0.004505
PT2194   PT        0.499746    0.622578    0.462223     0.004505
AU2195   AU        0.535759    0.590236    0.463481     0.007504
PT2196   PT        0.536146    0.623041    0.496340     0.004505
AU2197   AU        0.570646    0.590543    0.496990     0.007504
AU2198   AU        0.572058    0.624713    0.461403     0.007504
PT2199   PT        0.605754    0.590074    0.461696     0.004505
PT2200   PT        0.605524    0.625749    0.497061     0.004505
PT2201   PT        0.640170    0.590191    0.497302     0.004505
PT2202   PT        0.641142    0.624250    0.460269     0.004505
AU2203   AU        0.675597    0.590912    0.462058     0.007504
AU2204   AU        0.674028    0.621535    0.496374     0.007504
PT2205   PT        0.709429    0.590387    0.497878     0.004505
PT2206   PT        0.710640    0.623258    0.462507     0.004505
PT2207   PT        0.744916    0.590216    0.461620     0.004505
AU2208   AU        0.745736    0.624498    0.496990     0.007504
AU2209   AU        0.782331    0.591467    0.497317     0.007504
PT2210   PT        0.778764    0.622381    0.461698     0.004505
AU2211   AU        0.816941    0.590998    0.461053     0.007504
AU2212   AU        0.816314    0.623888    0.495597     0.007504
PT2213   PT        0.854204    0.595603    0.495209     0.004505
PT2214   PT        0.854042    0.627318    0.458799     0.004505
AU2215   AU        0.105577    0.657163    0.459461     0.007504
AU2216   AU        0.107227    0.694136    0.493754     0.007504
AU2217   AU        0.142164    0.660072    0.494509     0.007504
AU2218   AU        0.144535    0.691274    0.461103     0.007504
AU2219   AU        0.181110    0.656453    0.460422     0.007504
AU2220   AU        0.180075    0.693420    0.494426     0.007504
AU2221   AU        0.216800    0.660070    0.494381     0.007504
AU2222   AU        0.216041    0.693004    0.458924     0.007504
PT2223   PT        0.254437    0.656871    0.461221     0.004505
AU2224   AU        0.253661    0.690551    0.494184     0.007504
AU2225   AU        0.290816    0.656369    0.497511     0.007504
PT2226   PT        0.288090    0.690615    0.459028     0.004505
AU2227   AU        0.324341    0.657751    0.460309     0.007504
AU2228   AU        0.324765    0.689443    0.493479     0.007504
AU2229   AU        0.359000    0.654874    0.493796     0.007504
PT2230   PT        0.359442    0.687233    0.460753     0.004505
AU2231   AU        0.394714    0.655602    0.461421     0.007504
PT2232   PT        0.394579    0.687720    0.495781     0.004505
PT2233   PT        0.429239    0.656054    0.496244     0.004505
PT2234   PT        0.429773    0.690414    0.460767     0.004505
PT2235   PT        0.464949    0.656630    0.460371     0.004505
PT2236   PT        0.464733    0.687417    0.496403     0.004505
AU2237   AU        0.499917    0.655766    0.495551     0.007504
PT2238   PT        0.499446    0.688657    0.460285     0.004505
PT2239   PT        0.534346    0.655651    0.462015     0.004505
PT2240   PT        0.531878    0.688321    0.496537     0.004505
PT2241   PT        0.568693    0.657541    0.496229     0.004505
PT2242   PT        0.569019    0.688319    0.461130     0.004505
AU2243   AU        0.605630    0.658197    0.462294     0.007504
AU2244   AU        0.605621    0.689597    0.497203     0.007504
PT2245   PT        0.639445    0.658033    0.496604     0.004505
AU2246   AU        0.640186    0.690181    0.462792     0.007504
AU2247   AU        0.675058    0.657047    0.461775     0.007504
AU2248   AU        0.675916    0.687667    0.497775     0.007504
AU2249   AU        0.710775    0.655339    0.496080     0.007504
PT2250   PT        0.711036    0.689457    0.462688     0.004505
PT2251   PT        0.745040    0.657477    0.458854     0.004505
AU2252   AU        0.746635    0.691337    0.496175     0.007504
AU2253   AU        0.779535    0.655873    0.496038     0.007504
AU2254   AU        0.780467    0.692501    0.460593     0.007504
PT2255   PT        0.814911    0.657531    0.459614     0.004505
PT2256   PT        0.814637    0.690415    0.495354     0.004505
PT2257   PT        0.142780    0.724206    0.494459     0.004505
AU2258   AU        0.177308    0.726017    0.459331     0.007504
PT2259   PT        0.177262    0.756493    0.496561     0.004505
AU2260   AU        0.216254    0.724365    0.498800     0.007504
PT2261   PT        0.212280    0.756657    0.461826     0.004505
PT2262   PT        0.252403    0.723148    0.458115     0.004505
AU2263   AU        0.249775    0.757145    0.493938     0.007504
PT2264   PT        0.288357    0.723722    0.494939     0.004505
AU2265   AU        0.286081    0.756304    0.457774     0.007504
AU2266   AU        0.324095    0.724016    0.458432     0.007504
AU2267   AU        0.323996    0.756787    0.496898     0.007504
AU2268   AU        0.360334    0.721994    0.494928     0.007504
AU2269   AU        0.359645    0.758112    0.461243     0.007504
AU2270   AU        0.394911    0.724121    0.460303     0.007504
AU2271   AU        0.393536    0.754801    0.496613     0.007504
AU2272   AU        0.428688    0.722055    0.496009     0.007504
PT2273   PT        0.429492    0.754259    0.461176     0.004505
PT2274   PT        0.465318    0.722121    0.461819     0.004505
PT2275   PT        0.463846    0.756605    0.494096     0.004505
PT2276   PT        0.499004    0.721447    0.495601     0.004505
PT2277   PT        0.498931    0.755057    0.462225     0.004505
PT2278   PT        0.535549    0.721983    0.462354     0.004505
PT2279   PT        0.533845    0.755032    0.495669     0.004505
AU2280   AU        0.571813    0.721803    0.496935     0.007504
AU2281   AU        0.570037    0.755750    0.461026     0.007504
PT2282   PT        0.605720    0.722046    0.460697     0.004505
PT2283   PT        0.603982    0.756816    0.495241     0.004505
PT2284   PT        0.641018    0.722188    0.496767     0.004505
PT2285   PT        0.639587    0.756546    0.461674     0.004505
PT2286   PT        0.677614    0.722715    0.463025     0.004505
AU2287   AU        0.674015    0.757278    0.496181     0.007504
AU2288   AU        0.712392    0.723693    0.497331     0.007504
AU2289   AU        0.708422    0.757723    0.459474     0.007504
PT2290   PT        0.744962    0.723428    0.460824     0.004505
AU2291   AU        0.747314    0.758542    0.492766     0.007504
AU2292   AU        0.782946    0.726409    0.493462     0.007504
AU2293   AU        0.212216    0.790328    0.495202     0.007504
AU2294   AU        0.250478    0.789323    0.462246     0.007504
PT2295   PT        0.285683    0.790155    0.495161     0.004505
AU2296   AU        0.284188    0.825569    0.461204     0.007504
AU2297   AU        0.319958    0.789836    0.458780     0.007504
AU2298   AU        0.320964    0.824911    0.491605     0.007504
PT2299   PT        0.357416    0.789783    0.497701     0.004505
AU2300   AU        0.357671    0.822312    0.461655     0.007504
PT2301   PT        0.393952    0.789508    0.460250     0.004505
AU2302   AU        0.393107    0.821658    0.496076     0.007504
AU2303   AU        0.427914    0.789161    0.495456     0.007504
AU2304   AU        0.430193    0.826104    0.460372     0.007504
AU2305   AU        0.463092    0.790606    0.460846     0.007504
AU2306   AU        0.462364    0.825841    0.495927     0.007504
PT2307   PT        0.497629    0.790711    0.494518     0.004505
AU2308   AU        0.497010    0.825426    0.460384     0.007504
AU2309   AU        0.536295    0.790898    0.463317     0.007504
PT2310   PT        0.531632    0.824571    0.498122     0.004505
AU2311   AU        0.571074    0.789891    0.498943     0.007504
PT2312   PT        0.569953    0.825134    0.462925     0.004505
AU2313   AU        0.603378    0.792667    0.462733     0.007504
PT2314   PT        0.606364    0.824376    0.496458     0.004505
AU2315   AU        0.641653    0.791072    0.495522     0.007504
AU2316   AU        0.669465    0.866383    0.469561     0.007504
AU2317   AU        0.675210    0.791100    0.458661     0.007504
PT2318   PT        0.708835    0.791148    0.497213     0.004505
PT2319   PT        0.386886    0.858743    0.460344     0.004505
AU2320   AU        0.425476    0.858933    0.494362     0.007504
AU2321   AU        0.463105    0.859193    0.458328     0.007504
AU2322   AU        0.499567    0.860355    0.497173     0.007504
AU2323   AU        0.535142    0.858046    0.462299     0.007504
PT2324   PT        0.372045    0.000667    0.600916     0.004505
AU2325   AU        0.321918    0.096344    0.568327     0.007504
PT2326   PT        0.355365    0.096131    0.532586     0.004505
PT2327   PT        0.391493    0.093979    0.565493     0.004505
AU2328   AU        0.429038    0.095036    0.529384     0.007504
AU2329   AU        0.465573    0.061728    0.531411     0.007504
PT2330   PT        0.463861    0.095843    0.566849     0.004505
AU2331   AU        0.500525    0.098178    0.531635     0.007504
PT2332   PT        0.537575    0.097582    0.564824     0.004505
AU2333   AU        0.573320    0.097038    0.531403     0.007504
PT2334   PT        0.604103    0.062027    0.611885     0.004505
PT2335   PT        0.641969    0.095037    0.530268     0.004505
AU2336   AU        0.213907    0.164815    0.533252     0.007504
AU2337   AU        0.250439    0.131497    0.529740     0.007504
PT2338   PT        0.255913    0.165466    0.568291     0.004505
PT2339   PT        0.287570    0.130814    0.563490     0.004505
AU2340   AU        0.290690    0.165179    0.531539     0.007504
AU2341   AU        0.323440    0.132904    0.530557     0.007504
PT2342   PT        0.325279    0.163969    0.565358     0.004505
PT2343   PT        0.358147    0.129108    0.564900     0.004505
PT2344   PT        0.361415    0.165824    0.532421     0.004505
PT2345   PT        0.394951    0.131237    0.530193     0.004505
PT2346   PT        0.396140    0.163509    0.567092     0.004505
PT2347   PT        0.430734    0.128563    0.565479     0.004505
AU2348   AU        0.430063    0.163482    0.529539     0.007504
AU2349   AU        0.462936    0.128998    0.532286     0.007504
PT2350   PT        0.463571    0.164687    0.565525     0.004505
AU2351   AU        0.498377    0.128306    0.567138     0.007504
PT2352   PT        0.501240    0.165148    0.532138     0.004505
PT2353   PT        0.535633    0.130992    0.531733     0.004505
AU2354   AU        0.534634    0.161759    0.566009     0.007504
AU2355   AU        0.572836    0.128729    0.568109     0.007504
AU2356   AU        0.568958    0.162521    0.532979     0.007504
PT2357   PT        0.607167    0.131209    0.531117     0.004505
PT2358   PT        0.604938    0.164356    0.567100     0.004505
PT2359   PT        0.641343    0.128483    0.568069     0.004505
PT2360   PT        0.642108    0.163159    0.533181     0.004505
PT2361   PT        0.677272    0.131066    0.531482     0.004505
AU2362   AU        0.675490    0.163661    0.568312     0.007504
PT2363   PT        0.713465    0.162065    0.534586     0.004505
AU2364   AU        0.139757    0.225936    0.529126     0.007504
AU2365   AU        0.179069    0.196630    0.531803     0.007504
PT2366   PT        0.177266    0.229347    0.564692     0.004505
AU2367   AU        0.216372    0.196723    0.567345     0.007504
AU2368   AU        0.213960    0.228568    0.531292     0.007504
AU2369   AU        0.257227    0.198087    0.531730     0.007504
AU2370   AU        0.254494    0.230404    0.567710     0.007504
PT2371   PT        0.292206    0.198453    0.566333     0.004505
PT2372   PT        0.288893    0.230946    0.529150     0.004505
AU2373   AU        0.325963    0.198538    0.530799     0.007504
PT2374   PT        0.325611    0.230605    0.565945     0.004505
PT2375   PT        0.359763    0.195420    0.567421     0.004505
PT2376   PT        0.360564    0.229232    0.533011     0.004505
PT2377   PT        0.395832    0.198957    0.532942     0.004505
PT2378   PT        0.394015    0.229897    0.566799     0.004505
PT2379   PT        0.429575    0.198001    0.567521     0.004505
AU2380   AU        0.429900    0.230351    0.532501     0.007504
PT2381   PT        0.464394    0.198040    0.533830     0.004505
AU2382   AU        0.466669    0.230210    0.566686     0.007504
PT2383   PT        0.501172    0.196482    0.567953     0.004505
PT2384   PT        0.500532    0.227371    0.532564     0.004505
PT2385   PT        0.536028    0.198401    0.530195     0.004505
AU2386   AU        0.535263    0.231255    0.567366     0.007504
PT2387   PT        0.569185    0.196884    0.567665     0.004505
AU2388   AU        0.569974    0.229587    0.532482     0.007504
AU2389   AU        0.604362    0.195491    0.533213     0.007504
PT2390   PT        0.604255    0.230846    0.566408     0.004505
PT2391   PT        0.641254    0.197565    0.566283     0.004505
AU2392   AU        0.639439    0.228826    0.532028     0.007504
AU2393   AU        0.675005    0.197725    0.532695     0.007504
PT2394   PT        0.676643    0.230547    0.566499     0.004505
PT2395   PT        0.711160    0.198803    0.569982     0.004505
AU2396   AU        0.711025    0.231007    0.533233     0.007504
AU2397   AU        0.748623    0.196953    0.530184     0.007504
AU2398   AU        0.746580    0.230504    0.566305     0.007504
AU2399   AU        0.781523    0.229346    0.532870     0.007504
PT2400   PT        0.067758    0.294222    0.534439     0.004505
AU2401   AU        0.106911    0.261026    0.530811     0.007504
AU2402   AU        0.106513    0.293764    0.568765     0.007504
AU2403   AU        0.142897    0.260690    0.568884     0.007504
PT2404   PT        0.142391    0.292932    0.533222     0.004505
PT2405   PT        0.180548    0.261487    0.529285     0.004505
PT2406   PT        0.180265    0.293996    0.569959     0.004505
PT2407   PT        0.215890    0.261090    0.566025     0.004505
AU2408   AU        0.216657    0.293816    0.533270     0.007504
AU2409   AU        0.254469    0.264283    0.531643     0.007504
AU2410   AU        0.255642    0.296751    0.566627     0.007504
PT2411   PT        0.289185    0.262299    0.566537     0.004505
AU2412   AU        0.290193    0.297170    0.531963     0.007504
PT2413   PT        0.325548    0.262615    0.532023     0.004505
PT2414   PT        0.325797    0.294895    0.566807     0.004505
PT2415   PT        0.360212    0.263371    0.566741     0.004505
AU2416   AU        0.360889    0.296477    0.532378     0.007504
PT2417   PT        0.395450    0.263014    0.531668     0.004505
PT2418   PT        0.395823    0.296167    0.565138     0.004505
PT2419   PT        0.429806    0.262497    0.566804     0.004505
AU2420   AU        0.429931    0.295567    0.531050     0.007504
AU2421   AU        0.465444    0.263087    0.531678     0.007504
PT2422   PT        0.465163    0.295123    0.568721     0.004505
PT2423   PT        0.498806    0.263583    0.567278     0.004505
PT2424   PT        0.498913    0.297767    0.532446     0.004505
PT2425   PT        0.534206    0.265121    0.532090     0.004505
AU2426   AU        0.534566    0.297419    0.567764     0.007504
PT2427   PT        0.568861    0.263652    0.565215     0.004505
PT2428   PT        0.571106    0.296614    0.531737     0.004505
PT2429   PT        0.604710    0.262501    0.531260     0.004505
AU2430   AU        0.604554    0.294711    0.567613     0.007504
AU2431   AU        0.639961    0.261972    0.566268     0.007504
AU2432   AU        0.640230    0.295026    0.531761     0.007504
AU2433   AU        0.676841    0.263768    0.530749     0.007504
AU2434   AU        0.676973    0.296308    0.566176     0.007504
PT2435   PT        0.709547    0.263558    0.567159     0.004505
PT2436   PT        0.711500    0.296654    0.531649     0.004505
PT2437   PT        0.745130    0.263557    0.533517     0.004505
PT2438   PT        0.746712    0.297037    0.566327     0.004505
PT2439   PT        0.781009    0.262816    0.566671     0.004505
PT2440   PT        0.781676    0.297257    0.531181     0.004505
PT2441   PT        0.816314    0.264315    0.532395     0.004505
AU2442   AU        0.817417    0.295389    0.567339     0.007504
PT2443   PT        0.891388    0.326115    0.528225     0.004505
PT2444   PT        0.070305    0.329419    0.566806     0.004505
AU2445   AU        0.073971    0.361708    0.530180     0.007504
AU2446   AU        0.106001    0.325094    0.533441     0.007504
AU2447   AU        0.108407    0.359019    0.568729     0.007504
AU2448   AU        0.143983    0.325206    0.566491     0.007504
AU2449   AU        0.147283    0.359233    0.533499     0.007504
PT2450   PT        0.180525    0.325504    0.534644     0.004505
PT2451   PT        0.185160    0.360307    0.567923     0.004505
AU2452   AU        0.220415    0.328058    0.569709     0.007504
AU2453   AU        0.217918    0.360884    0.531951     0.007504
PT2454   PT        0.256092    0.328397    0.532377     0.004505
PT2455   PT        0.256594    0.358464    0.566627     0.004505
PT2456   PT        0.289845    0.328248    0.567598     0.004505
PT2457   PT        0.290198    0.360731    0.531278     0.004505
PT2458   PT        0.324686    0.326911    0.532356     0.004505
PT2459   PT        0.324589    0.361703    0.567836     0.004505
PT2460   PT        0.360000    0.328400    0.566480     0.004505
PT2461   PT        0.360667    0.359759    0.531656     0.004505
PT2462   PT        0.395334    0.328742    0.531220     0.004505
PT2463   PT        0.394546    0.361106    0.568111     0.004505
AU2464   AU        0.430023    0.329085    0.565794     0.007504
PT2465   PT        0.430748    0.361244    0.532151     0.004505
PT2466   PT        0.464316    0.328461    0.531671     0.004505
PT2467   PT        0.464793    0.360988    0.567690     0.004505
PT2468   PT        0.499687    0.329704    0.566966     0.004505
PT2469   PT        0.499101    0.360828    0.531830     0.004505
PT2470   PT        0.534734    0.328488    0.532351     0.004505
PT2471   PT        0.535810    0.360950    0.568191     0.004505
PT2472   PT        0.569928    0.327924    0.567746     0.004505
PT2473   PT        0.570293    0.360954    0.530614     0.004505
PT2474   PT        0.605963    0.328208    0.532752     0.004505
AU2475   AU        0.604611    0.360782    0.566283     0.007504
PT2476   PT        0.639261    0.329454    0.567092     0.004505
AU2477   AU        0.639202    0.361249    0.532248     0.007504
PT2478   PT        0.675393    0.329105    0.531086     0.004505
AU2479   AU        0.675214    0.359691    0.567553     0.007504
PT2480   PT        0.709702    0.328482    0.566499     0.004505
PT2481   PT        0.710687    0.360936    0.532417     0.004505
AU2482   AU        0.744939    0.329048    0.531037     0.007504
AU2483   AU        0.745629    0.360474    0.567173     0.007504
PT2484   PT        0.782699    0.328067    0.568728     0.004505
PT2485   PT        0.781210    0.361870    0.533274     0.004505
PT2486   PT        0.818015    0.330508    0.532219     0.004505
AU2487   AU        0.816049    0.361786    0.567249     0.007504
AU2488   AU        0.853170    0.329482    0.568170     0.007504
PT2489   PT        0.855479    0.363565    0.533969     0.004505
AU2490   AU        0.075720    0.391779    0.566476     0.007504
PT2491   PT        0.073501    0.426292    0.529354     0.004505
AU2492   AU        0.110873    0.391821    0.533050     0.007504
PT2493   PT        0.106583    0.426246    0.569314     0.004505
AU2494   AU        0.148295    0.394746    0.565506     0.007504
AU2495   AU        0.148583    0.429531    0.530935     0.007504
AU2496   AU        0.184559    0.394708    0.530585     0.007504
AU2497   AU        0.184068    0.426526    0.566465     0.007504
PT2498   PT        0.221657    0.395219    0.568642     0.004505
PT2499   PT        0.220737    0.427359    0.532609     0.004505
AU2500   AU        0.255176    0.394273    0.531644     0.007504
PT2501   PT        0.256015    0.426974    0.568146     0.004505
PT2502   PT        0.290147    0.392355    0.567887     0.004505
AU2503   AU        0.288082    0.426291    0.532438     0.007504
PT2504   PT        0.323998    0.394232    0.532885     0.004505
AU2505   AU        0.325780    0.426265    0.567469     0.007504
PT2506   PT        0.361359    0.393368    0.567131     0.004505
PT2507   PT        0.360916    0.427007    0.531664     0.004505
PT2508   PT        0.394106    0.393053    0.531962     0.004505
AU2509   AU        0.396516    0.426922    0.566980     0.007504
PT2510   PT        0.430602    0.394041    0.566644     0.004505
PT2511   PT        0.430229    0.427459    0.532865     0.004505
PT2512   PT        0.465520    0.394047    0.533094     0.004505
PT2513   PT        0.465438    0.425910    0.566529     0.004505
PT2514   PT        0.501383    0.394988    0.566980     0.004505
PT2515   PT        0.500124    0.427334    0.530632     0.004505
PT2516   PT        0.534573    0.393513    0.532010     0.004505
PT2517   PT        0.534915    0.427752    0.565358     0.004505
PT2518   PT        0.569371    0.393958    0.566163     0.004505
PT2519   PT        0.569262    0.425914    0.530066     0.004505
PT2520   PT        0.605664    0.393594    0.531043     0.004505
PT2521   PT        0.604523    0.426296    0.565939     0.004505
PT2522   PT        0.640251    0.394178    0.568315     0.004505
PT2523   PT        0.640519    0.427379    0.531617     0.004505
PT2524   PT        0.675346    0.392707    0.532836     0.004505
AU2525   AU        0.673451    0.426364    0.566400     0.007504
PT2526   PT        0.708925    0.392502    0.567698     0.004505
AU2527   AU        0.709928    0.426422    0.532413     0.007504
AU2528   AU        0.744256    0.394639    0.532124     0.007504
PT2529   PT        0.743644    0.426197    0.567414     0.004505
PT2530   PT        0.780425    0.392860    0.565222     0.004505
PT2531   PT        0.780108    0.426925    0.531816     0.004505
PT2532   PT        0.817827    0.394186    0.532250     0.004505
AU2533   AU        0.813818    0.426217    0.566838     0.007504
AU2534   AU        0.890024    0.428805    0.566809     0.007504
AU2535   AU        0.852316    0.425253    0.532915     0.007504
PT2536   PT        0.036642    0.462647    0.533665     0.004505
PT2537   PT        0.073703    0.461398    0.564886     0.004505
PT2538   PT        0.070946    0.493130    0.528985     0.004505
AU2539   AU        0.110492    0.460766    0.531817     0.007504
AU2540   AU        0.107363    0.493610    0.568126     0.007504
PT2541   PT        0.144085    0.458880    0.568613     0.004505
AU2542   AU        0.144814    0.491705    0.534268     0.007504
PT2543   PT        0.184935    0.458862    0.532419     0.004505
PT2544   PT        0.180174    0.492381    0.569332     0.004505
PT2545   PT        0.219804    0.458929    0.567290     0.004505
PT2546   PT        0.219458    0.493051    0.534737     0.004505
AU2547   AU        0.255640    0.460203    0.530810     0.007504
PT2548   PT        0.255385    0.491990    0.567979     0.004505
PT2549   PT        0.289504    0.457861    0.566746     0.004505
PT2550   PT        0.289753    0.490894    0.532382     0.004505
PT2551   PT        0.323572    0.458235    0.532072     0.004505
PT2552   PT        0.324396    0.494050    0.568551     0.004505
PT2553   PT        0.361107    0.460473    0.566418     0.004505
PT2554   PT        0.359868    0.493421    0.531863     0.004505
AU2555   AU        0.396498    0.460346    0.533514     0.007504
PT2556   PT        0.396079    0.493815    0.567372     0.004505
PT2557   PT        0.431176    0.460593    0.566439     0.004505
AU2558   AU        0.428087    0.492856    0.531502     0.007504
PT2559   PT        0.466067    0.458439    0.531730     0.004505
AU2560   AU        0.464198    0.492787    0.567083     0.007504
PT2561   PT        0.499997    0.460616    0.566251     0.004505
PT2562   PT        0.500953    0.492563    0.531478     0.004505
PT2563   PT        0.535056    0.460586    0.531294     0.004505
PT2564   PT        0.535508    0.492765    0.568448     0.004505
PT2565   PT        0.569717    0.459306    0.567602     0.004505
PT2566   PT        0.570360    0.493146    0.532393     0.004505
PT2567   PT        0.605725    0.459354    0.531183     0.004505
PT2568   PT        0.604137    0.493301    0.566998     0.004505
PT2569   PT        0.639791    0.459253    0.566463     0.004505
PT2570   PT        0.639411    0.490998    0.530468     0.004505
PT2571   PT        0.674438    0.460537    0.532115     0.004505
PT2572   PT        0.674249    0.493082    0.565406     0.004505
PT2573   PT        0.709926    0.458849    0.566802     0.004505
PT2574   PT        0.708202    0.493746    0.531092     0.004505
PT2575   PT        0.745341    0.457940    0.531335     0.004505
AU2576   AU        0.744493    0.491647    0.566614     0.007504
PT2577   PT        0.780667    0.459914    0.565718     0.004505
PT2578   PT        0.778545    0.493026    0.530912     0.004505
AU2579   AU        0.818143    0.459110    0.530180     0.007504
AU2580   AU        0.815817    0.494188    0.566039     0.007504
AU2581   AU        0.852767    0.458141    0.566986     0.007504
AU2582   AU        0.851415    0.492823    0.533357     0.007504
PT2583   PT        0.890644    0.459376    0.532700     0.004505
AU2584   AU        0.068435    0.528728    0.562310     0.007504
PT2585   PT        0.070987    0.559615    0.527791     0.004505
PT2586   PT        0.109813    0.526497    0.529435     0.004505
AU2587   AU        0.108201    0.557920    0.566338     0.007504
PT2588   PT        0.147694    0.525075    0.568114     0.004505
PT2589   PT        0.144510    0.559386    0.531026     0.004505
AU2590   AU        0.182834    0.525611    0.532287     0.007504
AU2591   AU        0.179708    0.559130    0.567270     0.007504
PT2592   PT        0.218828    0.526585    0.568590     0.004505
AU2593   AU        0.221028    0.557025    0.532300     0.007504
PT2594   PT        0.254270    0.524493    0.532827     0.004505
PT2595   PT        0.255212    0.557985    0.567311     0.004505
AU2596   AU        0.289345    0.524866    0.566295     0.007504
PT2597   PT        0.288317    0.556473    0.530270     0.004505
PT2598   PT        0.325581    0.524849    0.531263     0.004505
PT2599   PT        0.325893    0.556825    0.566914     0.004505
PT2600   PT        0.361787    0.526156    0.564971     0.004505
PT2601   PT        0.360694    0.558306    0.532346     0.004505
AU2602   AU        0.393980    0.524126    0.530657     0.007504
PT2603   PT        0.395460    0.557958    0.565489     0.004505
PT2604   PT        0.428900    0.526188    0.566744     0.004505
PT2605   PT        0.430855    0.556849    0.532343     0.004505
AU2606   AU        0.466347    0.525200    0.531500     0.007504
PT2607   PT        0.466096    0.559152    0.567459     0.004505
PT2608   PT        0.500071    0.526168    0.567774     0.004505
PT2609   PT        0.500302    0.558223    0.530707     0.004505
PT2610   PT        0.534531    0.525647    0.532083     0.004505
AU2611   AU        0.535045    0.556849    0.565211     0.007504
PT2612   PT        0.570972    0.526006    0.566470     0.004505
PT2613   PT        0.570494    0.557911    0.530508     0.004505
PT2614   PT        0.605837    0.524681    0.532554     0.004505
PT2615   PT        0.605993    0.557517    0.566860     0.004505
AU2616   AU        0.639459    0.523970    0.566277     0.007504
AU2617   AU        0.640610    0.557967    0.531663     0.007504
PT2618   PT        0.675063    0.525969    0.531901     0.004505
PT2619   PT        0.674394    0.557082    0.566879     0.004505
AU2620   AU        0.709884    0.525494    0.566340     0.007504
AU2621   AU        0.707858    0.557723    0.530442     0.007504
PT2622   PT        0.743392    0.524304    0.530740     0.004505
AU2623   AU        0.747127    0.557262    0.568572     0.007504
PT2624   PT        0.779272    0.523973    0.566516     0.004505
AU2625   AU        0.780746    0.556624    0.530409     0.007504
PT2626   PT        0.815390    0.524698    0.531595     0.004505
AU2627   AU        0.814751    0.556235    0.565653     0.007504
PT2628   PT        0.853473    0.528246    0.565092     0.004505
PT2629   PT        0.856800    0.560389    0.531618     0.004505
PT2630   PT        0.073763    0.592553    0.565429     0.004505
AU2631   AU        0.073428    0.627850    0.532653     0.007504
AU2632   AU        0.107579    0.593870    0.527425     0.007504
AU2633   AU        0.108411    0.625032    0.566631     0.007504
PT2634   PT        0.143127    0.591614    0.567550     0.004505
AU2635   AU        0.144766    0.627263    0.533620     0.007504
PT2636   PT        0.179330    0.591811    0.531377     0.004505
AU2637   AU        0.179915    0.622603    0.567980     0.007504
AU2638   AU        0.217243    0.590448    0.565305     0.007504
AU2639   AU        0.216688    0.623984    0.531249     0.007504
PT2640   PT        0.254843    0.590630    0.531440     0.004505
AU2641   AU        0.251561    0.624490    0.565801     0.007504
PT2642   PT        0.289814    0.589805    0.565520     0.004505
PT2643   PT        0.288765    0.623241    0.532246     0.004505
PT2644   PT        0.325358    0.590219    0.530837     0.004505
AU2645   AU        0.322539    0.623515    0.565760     0.007504
AU2646   AU        0.359857    0.591350    0.566704     0.007504
AU2647   AU        0.358818    0.624974    0.530900     0.007504
PT2648   PT        0.395749    0.589918    0.531913     0.004505
PT2649   PT        0.394174    0.624236    0.567911     0.004505
PT2650   PT        0.429919    0.590817    0.566265     0.004505
PT2651   PT        0.429595    0.623463    0.530807     0.004505
PT2652   PT        0.463418    0.589684    0.532116     0.004505
AU2653   AU        0.464717    0.623189    0.567428     0.007504
AU2654   AU        0.499009    0.590279    0.567314     0.007504
AU2655   AU        0.498979    0.623311    0.533248     0.007504
PT2656   PT        0.535790    0.591686    0.531943     0.004505
PT2657   PT        0.535751    0.623613    0.565537     0.004505
PT2658   PT        0.569408    0.590636    0.567756     0.004505
PT2659   PT        0.571901    0.624116    0.530911     0.004505
PT2660   PT        0.605910    0.589528    0.530657     0.004505
AU2661   AU        0.604582    0.623499    0.566967     0.007504
PT2662   PT        0.638619    0.590047    0.565671     0.004505
PT2663   PT        0.640833    0.623387    0.532051     0.004505
PT2664   PT        0.673965    0.590040    0.532210     0.004505
AU2665   AU        0.675821    0.624627    0.566673     0.007504
PT2666   PT        0.709231    0.589711    0.565727     0.004505
AU2667   AU        0.710972    0.623070    0.529713     0.007504
PT2668   PT        0.744846    0.590199    0.531006     0.004505
AU2669   AU        0.745556    0.625676    0.567288     0.007504
PT2670   PT        0.779052    0.590797    0.567634     0.004505
PT2671   PT        0.779061    0.623085    0.532491     0.004505
PT2672   PT        0.819432    0.591784    0.533035     0.004505
AU2673   AU        0.861043    0.634551    0.625460     0.007504
PT2674   PT        0.847737    0.591938    0.563770     0.004505
PT2675   PT        0.852774    0.629218    0.529029     0.004505
AU2676   AU        0.107685    0.661450    0.528099     0.007504
PT2677   PT        0.142769    0.655800    0.566759     0.004505
AU2678   AU        0.147269    0.690102    0.531035     0.007504
AU2679   AU        0.183344    0.657992    0.533791     0.007504
PT2680   PT        0.181049    0.690018    0.568065     0.004505
AU2681   AU        0.218001    0.658607    0.569081     0.007504
PT2682   PT        0.218832    0.691144    0.530991     0.004505
PT2683   PT        0.252656    0.656950    0.531282     0.004505
AU2684   AU        0.253467    0.690034    0.566912     0.007504
AU2685   AU        0.287392    0.655256    0.566842     0.007504
AU2686   AU        0.290489    0.688516    0.531689     0.007504
AU2687   AU        0.323882    0.656954    0.531673     0.007504
PT2688   PT        0.322085    0.688128    0.567608     0.004505
PT2689   PT        0.358334    0.658079    0.565948     0.004505
PT2690   PT        0.358131    0.688114    0.530559     0.004505
PT2691   PT        0.394108    0.655099    0.532178     0.004505
PT2692   PT        0.394531    0.689297    0.567449     0.004505
PT2693   PT        0.429497    0.657129    0.565641     0.004505
PT2694   PT        0.429971    0.689989    0.531808     0.004505
PT2695   PT        0.464356    0.656971    0.531983     0.004505
AU2696   AU        0.464989    0.687801    0.566574     0.007504
AU2697   AU        0.498529    0.655840    0.566192     0.007504
AU2698   AU        0.499536    0.689993    0.531651     0.007504
AU2699   AU        0.533362    0.656855    0.531899     0.007504
PT2700   PT        0.534387    0.690037    0.567907     0.004505
PT2701   PT        0.569699    0.656685    0.568275     0.004505
AU2702   AU        0.569089    0.688755    0.531212     0.007504
AU2703   AU        0.604332    0.657196    0.531798     0.007504
PT2704   PT        0.602201    0.690184    0.566785     0.004505
PT2705   PT        0.640607    0.656670    0.565061     0.004505
AU2706   AU        0.639232    0.689080    0.533240     0.007504
PT2707   PT        0.676281    0.655874    0.531672     0.004505
AU2708   AU        0.675363    0.690421    0.568421     0.007504
PT2709   PT        0.710352    0.655872    0.567204     0.004505
PT2710   PT        0.710689    0.688601    0.530884     0.004505
PT2711   PT        0.745956    0.657278    0.530411     0.004505
AU2712   AU        0.746348    0.693290    0.566806     0.007504
AU2713   AU        0.778519    0.658396    0.566735     0.007504
AU2714   AU        0.780434    0.692156    0.531471     0.007504
PT2715   PT        0.813450    0.655147    0.531895     0.004505
PT2716   PT        0.179629    0.724149    0.532781     0.004505
PT2717   PT        0.214955    0.724690    0.564487     0.004505
AU2718   AU        0.216719    0.759847    0.531487     0.007504
AU2719   AU        0.253155    0.724796    0.531488     0.007504
PT2720   PT        0.253462    0.756707    0.564549     0.004505
PT2721   PT        0.290145    0.721588    0.564673     0.004505
PT2722   PT        0.287898    0.760076    0.531218     0.004505
AU2723   AU        0.325703    0.721401    0.530569     0.007504
PT2724   PT        0.323978    0.757390    0.567317     0.004505
PT2725   PT        0.358742    0.720041    0.565172     0.004505
AU2726   AU        0.359061    0.756315    0.532529     0.007504
AU2727   AU        0.393808    0.719750    0.529772     0.007504
PT2728   PT        0.394491    0.753776    0.564613     0.004505
PT2729   PT        0.426982    0.723478    0.567515     0.004505
AU2730   AU        0.428360    0.754727    0.528816     0.007504
AU2731   AU        0.463978    0.723134    0.530490     0.007504
PT2732   PT        0.464470    0.754514    0.565347     0.004505
AU2733   AU        0.498617    0.722602    0.566075     0.007504
AU2734   AU        0.498282    0.757303    0.529011     0.007504
AU2735   AU        0.533708    0.722633    0.530510     0.007504
AU2736   AU        0.532116    0.756026    0.564545     0.007504
PT2737   PT        0.567738    0.721726    0.565629     0.004505
PT2738   PT        0.569524    0.755308    0.529726     0.004505
AU2739   AU        0.604860    0.720960    0.530886     0.007504
PT2740   PT        0.603466    0.758789    0.564897     0.004505
AU2741   AU        0.640191    0.725386    0.566297     0.007504
PT2742   PT        0.639440    0.756936    0.530254     0.004505
AU2743   AU        0.675216    0.721685    0.531779     0.007504
AU2744   AU        0.676808    0.758347    0.563940     0.007504
AU2745   AU        0.712339    0.723878    0.566985     0.007504
PT2746   PT        0.709087    0.756671    0.529876     0.004505
AU2747   AU        0.747119    0.725233    0.530570     0.007504
AU2748   AU        0.249175    0.792392    0.529280     0.007504
PT2749   PT        0.284184    0.792912    0.569163     0.004505
PT2750   PT        0.285887    0.824638    0.528544     0.004505
AU2751   AU        0.319634    0.793202    0.532028     0.007504
AU2752   AU        0.321241    0.825945    0.564708     0.007504
AU2753   AU        0.356377    0.790145    0.564262     0.007504
PT2754   PT        0.357019    0.826025    0.530361     0.004505
PT2755   PT        0.392869    0.791611    0.532015     0.004505
PT2756   PT        0.389559    0.824496    0.566281     0.004505
AU2757   AU        0.426562    0.792257    0.565426     0.007504
AU2758   AU        0.427707    0.825226    0.530346     0.007504
AU2759   AU        0.461824    0.791190    0.530415     0.007504
AU2760   AU        0.462930    0.825672    0.567546     0.007504
PT2761   PT        0.496181    0.790647    0.566155     0.004505
PT2762   PT        0.494771    0.824194    0.530081     0.004505
AU2763   AU        0.532270    0.788012    0.529680     0.007504
AU2764   AU        0.533608    0.821476    0.566559     0.007504
PT2765   PT        0.567856    0.787963    0.566283     0.004505
AU2766   AU        0.570043    0.823912    0.533291     0.007504
AU2767   AU        0.606055    0.789783    0.530307     0.007504
PT2768   PT        0.605796    0.821288    0.567977     0.004505
PT2769   PT        0.639649    0.789555    0.568138     0.004505
AU2770   AU        0.640302    0.824166    0.532680     0.007504
AU2771   AU        0.672949    0.790696    0.531028     0.007504
AU2772   AU        0.463820    0.859455    0.530856     0.007504
PT2773   PT        0.356463    0.096732    0.603630     0.004505
PT2774   PT        0.395680    0.093013    0.635259     0.004505
AU2775   AU        0.428075    0.094455    0.599564     0.007504
AU2776   AU        0.464645    0.091972    0.637589     0.007504
PT2777   PT        0.499268    0.096322    0.600246     0.004505
PT2778   PT        0.532346    0.094066    0.636864     0.004505
PT2779   PT        0.568567    0.095719    0.604420     0.004505
AU2780   AU        0.220677    0.132252    0.567259     0.007504
AU2781   AU        0.253064    0.162486    0.635513     0.007504
AU2782   AU        0.291104    0.130124    0.642328     0.007504
AU2783   AU        0.291276    0.166189    0.602432     0.007504
AU2784   AU        0.321358    0.130910    0.601500     0.007504
AU2785   AU        0.325256    0.161553    0.637871     0.007504
PT2786   PT        0.358188    0.128280    0.637926     0.004505
AU2787   AU        0.362568    0.162338    0.602316     0.007504
PT2788   PT        0.394149    0.128216    0.602862     0.004505
AU2789   AU        0.395241    0.163866    0.638491     0.007504
PT2790   PT        0.431046    0.126395    0.636941     0.004505
PT2791   PT        0.429764    0.162874    0.600339     0.004505
AU2792   AU        0.462470    0.129625    0.603097     0.007504
PT2793   PT        0.462654    0.160740    0.637155     0.004505
AU2794   AU        0.499002    0.125784    0.637593     0.007504
AU2795   AU        0.499802    0.162547    0.599858     0.007504
AU2796   AU        0.535222    0.130702    0.599255     0.007504
AU2797   AU        0.533570    0.161943    0.637077     0.007504
PT2798   PT        0.567456    0.131987    0.637116     0.004505
PT2799   PT        0.570592    0.165079    0.602528     0.004505
PT2800   PT        0.638033    0.098919    0.603707     0.004505
AU2801   AU        0.603806    0.162068    0.637323     0.007504
AU2802   AU        0.644551    0.130296    0.641624     0.007504
PT2803   PT        0.638219    0.162674    0.604694     0.004505
PT2804   PT        0.679408    0.164593    0.637562     0.004505
PT2805   PT        0.710921    0.163668    0.600331     0.004505
PT2806   PT        0.142822    0.198051    0.567610     0.004505
PT2807   PT        0.175722    0.196358    0.603884     0.004505
AU2808   AU        0.177038    0.228254    0.638748     0.007504
AU2809   AU        0.214794    0.193447    0.634890     0.007504
AU2810   AU        0.213281    0.228061    0.601582     0.007504
AU2811   AU        0.254814    0.197647    0.603972     0.007504
AU2812   AU        0.252055    0.228077    0.638063     0.007504
AU2813   AU        0.289575    0.195745    0.638954     0.007504
AU2814   AU        0.290260    0.228586    0.601536     0.007504
AU2815   AU        0.328124    0.197969    0.602046     0.007504
AU2816   AU        0.324067    0.229292    0.638607     0.007504
AU2817   AU        0.358658    0.195318    0.639933     0.007504
AU2818   AU        0.361676    0.230449    0.602366     0.007504
AU2819   AU        0.394686    0.196327    0.602894     0.007504
PT2820   PT        0.395541    0.229933    0.636088     0.004505
AU2821   AU        0.427886    0.196811    0.637346     0.007504
PT2822   PT        0.430203    0.231558    0.602259     0.004505
AU2823   AU        0.465549    0.196761    0.602724     0.007504
PT2824   PT        0.464205    0.229383    0.637511     0.004505
AU2825   AU        0.500788    0.197668    0.636968     0.007504
AU2826   AU        0.499220    0.231881    0.602331     0.007504
AU2827   AU        0.536132    0.196754    0.603740     0.007504
PT2828   PT        0.534106    0.231840    0.638067     0.004505
PT2829   PT        0.568895    0.196583    0.638174     0.004505
AU2830   AU        0.568525    0.230542    0.600345     0.007504
PT2831   PT        0.604671    0.199491    0.601203     0.004505
AU2832   AU        0.603111    0.228255    0.638946     0.007504
AU2833   AU        0.639768    0.195508    0.637336     0.007504
PT2834   PT        0.642130    0.229965    0.600721     0.004505
PT2835   PT        0.674623    0.194587    0.602924     0.004505
AU2836   AU        0.676108    0.230274    0.638018     0.007504
PT2837   PT        0.710836    0.198301    0.635374     0.004505
PT2838   PT        0.710838    0.231483    0.602065     0.004505
PT2839   PT        0.750298    0.195916    0.600812     0.004505
AU2840   AU        0.746177    0.231397    0.637145     0.007504
PT2841   PT        0.782930    0.231724    0.599772     0.004505
AU2842   AU        0.110252    0.294892    0.640449     0.007504
PT2843   PT        0.147546    0.263349    0.641842     0.004505
AU2844   AU        0.145240    0.294568    0.604761     0.007504
AU2845   AU        0.178625    0.259735    0.604324     0.007504
PT2846   PT        0.184568    0.297066    0.638830     0.004505
AU2847   AU        0.217462    0.260434    0.638770     0.007504
PT2848   PT        0.216027    0.297069    0.603022     0.004505
PT2849   PT        0.251083    0.263423    0.602532     0.004505
AU2850   AU        0.252364    0.294966    0.637901     0.007504
AU2851   AU        0.291257    0.264261    0.636328     0.007504
AU2852   AU        0.290564    0.296450    0.601735     0.007504
PT2853   PT        0.326423    0.262764    0.604227     0.004505
PT2854   PT        0.326034    0.295643    0.636779     0.004505
AU2855   AU        0.360155    0.263518    0.636897     0.007504
AU2856   AU        0.359616    0.297265    0.601499     0.007504
PT2857   PT        0.395142    0.264656    0.600811     0.004505
PT2858   PT        0.394262    0.294911    0.638443     0.004505
PT2859   PT        0.430353    0.264385    0.636403     0.004505
PT2860   PT        0.429347    0.296486    0.602487     0.004505
AU2861   AU        0.465354    0.263695    0.602800     0.007504
PT2862   PT        0.465934    0.296161    0.637528     0.004505
PT2863   PT        0.498046    0.262120    0.638202     0.004505
PT2864   PT        0.500581    0.294887    0.602900     0.004505
AU2865   AU        0.534617    0.263230    0.602097     0.007504
PT2866   PT        0.534447    0.296405    0.637137     0.004505
AU2867   AU        0.569735    0.263195    0.635926     0.007504
AU2868   AU        0.569117    0.296161    0.602748     0.007504
AU2869   AU        0.603737    0.263016    0.602217     0.007504
AU2870   AU        0.604594    0.294622    0.636183     0.007504
PT2871   PT        0.639753    0.263438    0.636972     0.004505
PT2872   PT        0.640094    0.296878    0.601762     0.004505
PT2873   PT        0.675633    0.263314    0.603126     0.004505
PT2874   PT        0.673407    0.296301    0.638164     0.004505
PT2875   PT        0.711086    0.262342    0.638791     0.004505
AU2876   AU        0.710593    0.296926    0.604163     0.007504
AU2877   AU        0.746466    0.261636    0.602194     0.007504
AU2878   AU        0.745803    0.295061    0.637667     0.007504
AU2879   AU        0.783332    0.262166    0.638414     0.007504
AU2880   AU        0.781841    0.294766    0.603326     0.007504
AU2881   AU        0.818986    0.295655    0.640536     0.007504
PT2882   PT        0.071886    0.359731    0.603881     0.004505
PT2883   PT        0.109622    0.328208    0.603648     0.004505
AU2884   AU        0.108773    0.362140    0.636941     0.007504
AU2885   AU        0.144936    0.327207    0.636349     0.007504
PT2886   PT        0.146622    0.359112    0.602722     0.004505
AU2887   AU        0.181562    0.328147    0.603999     0.007504
PT2888   PT        0.183113    0.362632    0.637698     0.004505
PT2889   PT        0.221124    0.329312    0.637300     0.004505
PT2890   PT        0.221491    0.362381    0.601465     0.004505
AU2891   AU        0.256360    0.327512    0.603570     0.007504
PT2892   PT        0.255296    0.361792    0.638693     0.004505
PT2893   PT        0.289451    0.328511    0.638464     0.004505
PT2894   PT        0.290546    0.360092    0.602599     0.004505
AU2895   AU        0.325497    0.327755    0.602531     0.007504
PT2896   PT        0.324624    0.360626    0.638462     0.004505
AU2897   AU        0.361623    0.330078    0.636447     0.007504
PT2898   PT        0.360220    0.362055    0.602442     0.004505
PT2899   PT        0.395240    0.328612    0.601881     0.004505
PT2900   PT        0.394226    0.361528    0.637005     0.004505
AU2901   AU        0.430440    0.328515    0.636372     0.007504
PT2902   PT        0.429659    0.361799    0.602758     0.004505
PT2903   PT        0.465469    0.329434    0.603584     0.004505
AU2904   AU        0.464533    0.361071    0.636806     0.007504
AU2905   AU        0.500264    0.328333    0.638373     0.007504
AU2906   AU        0.499863    0.362069    0.602555     0.007504
PT2907   PT        0.533023    0.328913    0.603066     0.004505
PT2908   PT        0.535492    0.359822    0.637505     0.004505
AU2909   AU        0.570132    0.327759    0.636815     0.007504
PT2910   PT        0.569780    0.359956    0.601860     0.004505
PT2911   PT        0.604626    0.329318    0.601016     0.004505
PT2912   PT        0.603690    0.360423    0.637458     0.004505
AU2913   AU        0.639158    0.330102    0.636852     0.007504
PT2914   PT        0.639594    0.360463    0.601068     0.004505
AU2915   AU        0.674975    0.327807    0.601752     0.007504
AU2916   AU        0.674678    0.359468    0.636215     0.007504
AU2917   AU        0.710220    0.328273    0.637058     0.007504
AU2918   AU        0.711081    0.360790    0.600397     0.007504
PT2919   PT        0.745624    0.330087    0.602258     0.004505
AU2920   AU        0.746761    0.361534    0.637798     0.007504
AU2921   AU        0.780766    0.329671    0.638764     0.007504
PT2922   PT        0.781300    0.359888    0.600990     0.004505
AU2923   AU        0.819164    0.329037    0.604603     0.007504
AU2924   AU        0.815204    0.361514    0.638230     0.007504
AU2925   AU        0.851132    0.361640    0.604657     0.007504
PT2926   PT        0.069771    0.395481    0.633206     0.004505
PT2927   PT        0.070043    0.428530    0.600967     0.004505
PT2928   PT        0.110167    0.393229    0.602659     0.004505
PT2929   PT        0.107062    0.425702    0.636458     0.004505
AU2930   AU        0.145896    0.394406    0.637707     0.007504
PT2931   PT        0.146264    0.426928    0.602594     0.004505
PT2932   PT        0.184822    0.393480    0.602964     0.004505
PT2933   PT        0.180852    0.425932    0.636597     0.004505
AU2934   AU        0.220513    0.394649    0.637795     0.007504
PT2935   PT        0.221186    0.426872    0.603105     0.004505
AU2936   AU        0.256281    0.392435    0.601821     0.007504
PT2937   PT        0.254625    0.427179    0.637599     0.004505
AU2938   AU        0.289396    0.394594    0.636773     0.007504
AU2939   AU        0.289581    0.426020    0.602957     0.007504
PT2940   PT        0.327133    0.394588    0.601557     0.004505
AU2941   AU        0.324061    0.425537    0.637405     0.007504
AU2942   AU        0.359328    0.394723    0.637737     0.007504
AU2943   AU        0.361441    0.426400    0.601987     0.007504
PT2944   PT        0.394828    0.393507    0.603112     0.004505
PT2945   PT        0.395527    0.427432    0.636533     0.004505
AU2946   AU        0.431117    0.394430    0.636446     0.007504
PT2947   PT        0.429810    0.427110    0.602984     0.004505
AU2948   AU        0.465069    0.392906    0.603098     0.007504
PT2949   PT        0.464099    0.426236    0.637211     0.004505
PT2950   PT        0.499241    0.394827    0.635130     0.004505
AU2951   AU        0.498262    0.427263    0.601903     0.007504
AU2952   AU        0.536108    0.393623    0.602454     0.007504
PT2953   PT        0.535478    0.426796    0.635844     0.004505
PT2954   PT        0.570953    0.394018    0.635781     0.004505
AU2955   AU        0.570001    0.426381    0.600680     0.007504
PT2956   PT        0.604910    0.393395    0.602145     0.004505
PT2957   PT        0.605676    0.427876    0.636463     0.004505
PT2958   PT        0.639837    0.392756    0.635703     0.004505
PT2959   PT        0.640039    0.428206    0.601872     0.004505
PT2960   PT        0.674385    0.393526    0.601704     0.004505
AU2961   AU        0.674087    0.427202    0.635182     0.007504
AU2962   AU        0.709416    0.393530    0.634977     0.007504
AU2963   AU        0.709549    0.427270    0.601687     0.007504
PT2964   PT        0.745949    0.393342    0.600303     0.004505
AU2965   AU        0.747053    0.427765    0.636751     0.007504
PT2966   PT        0.780869    0.392831    0.635984     0.004505
AU2967   AU        0.781418    0.426040    0.601935     0.007504
AU2968   AU        0.819298    0.395334    0.604698     0.007504
PT2969   PT        0.817223    0.430077    0.637364     0.004505
AU2970   AU        0.853357    0.395246    0.641046     0.007504
PT2971   PT        0.855012    0.428733    0.603420     0.004505
PT2972   PT        0.068659    0.463319    0.631838     0.004505
PT2973   PT        0.073346    0.490876    0.604289     0.004505
PT2974   PT        0.108209    0.459863    0.603842     0.004505
AU2975   AU        0.108247    0.492066    0.639042     0.007504
PT2976   PT        0.142272    0.458576    0.638734     0.004505
AU2977   AU        0.142614    0.491884    0.602818     0.007504
PT2978   PT        0.178833    0.459757    0.601490     0.004505
AU2979   AU        0.179905    0.490131    0.637500     0.007504
PT2980   PT        0.219203    0.459407    0.638007     0.004505
AU2981   AU        0.216895    0.491990    0.604674     0.007504
AU2982   AU        0.255806    0.459977    0.602097     0.007504
PT2983   PT        0.256138    0.492218    0.638051     0.004505
AU2984   AU        0.290564    0.461143    0.637934     0.007504
PT2985   PT        0.290493    0.493217    0.602645     0.004505
AU2986   AU        0.324930    0.459528    0.602754     0.007504
PT2987   PT        0.325864    0.492428    0.638207     0.004505
PT2988   PT        0.359568    0.458535    0.638363     0.004505
PT2989   PT        0.360081    0.491983    0.603206     0.004505
PT2990   PT        0.394382    0.459099    0.601433     0.004505
PT2991   PT        0.396649    0.492494    0.635601     0.004505
PT2992   PT        0.429206    0.458955    0.636624     0.004505
PT2993   PT        0.429630    0.491892    0.601716     0.004505
PT2994   PT        0.465567    0.460380    0.601079     0.004505
AU2995   AU        0.464061    0.492867    0.637381     0.007504
PT2996   PT        0.500050    0.459428    0.636605     0.004505
PT2997   PT        0.500803    0.492130    0.602153     0.004505
PT2998   PT        0.535781    0.459467    0.602570     0.004505
PT2999   PT        0.534304    0.492567    0.636598     0.004505
PT3000   PT        0.569967    0.461196    0.637662     0.004505
PT3001   PT        0.569780    0.492953    0.602192     0.004505
PT3002   PT        0.603773    0.460462    0.600704     0.004505
PT3003   PT        0.604510    0.492222    0.638145     0.004505
PT3004   PT        0.640182    0.459810    0.637614     0.004505
PT3005   PT        0.639924    0.492021    0.601244     0.004505
PT3006   PT        0.673987    0.459975    0.600569     0.004505
PT3007   PT        0.675922    0.491605    0.635764     0.004505
PT3008   PT        0.709806    0.460368    0.636175     0.004505
PT3009   PT        0.709623    0.492904    0.599456     0.004505
PT3010   PT        0.745273    0.459850    0.600174     0.004505
AU3011   AU        0.743197    0.493033    0.635272     0.007504
PT3012   PT        0.781253    0.461689    0.637652     0.004505
AU3013   AU        0.779856    0.494021    0.601278     0.007504
AU3014   AU        0.815547    0.461074    0.602364     0.007504
AU3015   AU        0.819735    0.490717    0.638747     0.007504
PT3016   PT        0.855299    0.458767    0.638937     0.004505
AU3017   AU        0.854243    0.491979    0.602603     0.007504
AU3018   AU        0.073028    0.526073    0.639797     0.007504
AU3019   AU        0.071372    0.555853    0.599880     0.007504
AU3020   AU        0.108211    0.523146    0.604041     0.007504
AU3021   AU        0.108930    0.556319    0.638130     0.007504
AU3022   AU        0.145445    0.523892    0.634622     0.007504
PT3023   PT        0.145054    0.558273    0.602489     0.004505
AU3024   AU        0.183144    0.525659    0.602976     0.007504
PT3025   PT        0.181921    0.555826    0.638754     0.004505
PT3026   PT        0.219290    0.525761    0.636126     0.004505
AU3027   AU        0.217842    0.558308    0.601355     0.007504
PT3028   PT        0.254084    0.523676    0.602432     0.004505
AU3029   AU        0.254486    0.556157    0.637723     0.007504
PT3030   PT        0.290593    0.525893    0.637353     0.004505
AU3031   AU        0.289238    0.560236    0.602673     0.007504
PT3032   PT        0.324993    0.524671    0.602620     0.004505
AU3033   AU        0.326733    0.557199    0.636025     0.007504
PT3034   PT        0.360289    0.524950    0.637025     0.004505
AU3035   AU        0.361009    0.557208    0.601998     0.007504
AU3036   AU        0.394784    0.526181    0.602843     0.007504
PT3037   PT        0.396336    0.556862    0.636460     0.004505
PT3038   PT        0.430904    0.525378    0.636809     0.004505
PT3039   PT        0.429394    0.557491    0.601695     0.004505
PT3040   PT        0.464153    0.526651    0.600001     0.004505
PT3041   PT        0.463918    0.558692    0.635704     0.004505
AU3042   AU        0.498395    0.525263    0.635714     0.007504
PT3043   PT        0.499972    0.559028    0.602251     0.004505
PT3044   PT        0.534461    0.526286    0.600912     0.004505
PT3045   PT        0.534373    0.558179    0.635725     0.004505
AU3046   AU        0.569468    0.525073    0.636389     0.007504
PT3047   PT        0.568599    0.558071    0.601152     0.004505
AU3048   AU        0.605543    0.524569    0.602617     0.007504
AU3049   AU        0.604362    0.558152    0.636087     0.007504
AU3050   AU        0.640139    0.524735    0.636888     0.007504
PT3051   PT        0.639668    0.557123    0.601201     0.004505
AU3052   AU        0.674601    0.524190    0.601955     0.007504
PT3053   PT        0.673771    0.556889    0.636565     0.004505
AU3054   AU        0.709945    0.525500    0.636231     0.007504
PT3055   PT        0.710325    0.557027    0.602608     0.004505
AU3056   AU        0.745184    0.523706    0.600988     0.007504
PT3057   PT        0.745540    0.556736    0.636428     0.004505
PT3058   PT        0.778329    0.525327    0.635697     0.004505
AU3059   AU        0.779534    0.557448    0.601260     0.007504
AU3060   AU        0.819595    0.526591    0.603680     0.007504
AU3061   AU        0.817507    0.560493    0.636922     0.007504
AU3062   AU        0.856430    0.529698    0.637755     0.007504
PT3063   PT        0.852463    0.562302    0.601909     0.004505
AU3064   AU        0.106577    0.589523    0.602185     0.007504
PT3065   PT        0.104659    0.625217    0.634119     0.004505
AU3066   AU        0.144375    0.589720    0.637831     0.007504
PT3067   PT        0.145330    0.621787    0.604016     0.004505
PT3068   PT        0.182175    0.589152    0.603718     0.004505
AU3069   AU        0.181393    0.622724    0.637655     0.007504
PT3070   PT        0.217152    0.588915    0.636157     0.004505
AU3071   AU        0.217922    0.624811    0.601888     0.007504
AU3072   AU        0.253289    0.590195    0.599551     0.007504
AU3073   AU        0.254216    0.623174    0.635277     0.007504
AU3074   AU        0.289938    0.591413    0.638229     0.007504
PT3075   PT        0.288238    0.623494    0.602720     0.004505
AU3076   AU        0.323924    0.591709    0.600842     0.007504
AU3077   AU        0.324265    0.622253    0.638428     0.007504
AU3078   AU        0.359211    0.591252    0.635796     0.007504
AU3079   AU        0.359625    0.624392    0.603050     0.007504
PT3080   PT        0.394295    0.590622    0.602503     0.004505
PT3081   PT        0.394751    0.624035    0.637025     0.004505
AU3082   AU        0.429409    0.592061    0.636967     0.007504
PT3083   PT        0.430820    0.623990    0.600859     0.004505
AU3084   AU        0.464524    0.591364    0.601130     0.007504
AU3085   AU        0.462839    0.623994    0.637386     0.007504
PT3086   PT        0.499925    0.591834    0.636596     0.004505
AU3087   AU        0.499612    0.625148    0.601267     0.007504
AU3088   AU        0.533716    0.590469    0.601237     0.007504
AU3089   AU        0.534889    0.624081    0.636302     0.007504
PT3090   PT        0.569643    0.589635    0.636662     0.004505
PT3091   PT        0.569607    0.623157    0.602656     0.004505
AU3092   AU        0.603920    0.590104    0.601993     0.007504
PT3093   PT        0.604096    0.622411    0.635850     0.004505
PT3094   PT        0.641200    0.589244    0.634397     0.004505
AU3095   AU        0.640632    0.623941    0.602813     0.007504
PT3096   PT        0.675021    0.589149    0.600945     0.004505
PT3097   PT        0.674516    0.622843    0.637747     0.004505
PT3098   PT        0.708689    0.589607    0.636162     0.004505
AU3099   AU        0.708447    0.622562    0.602918     0.007504
AU3100   AU        0.742751    0.589769    0.601846     0.007504
PT3101   PT        0.745949    0.623599    0.635415     0.004505
AU3102   AU        0.780491    0.590719    0.634445     0.007504
PT3103   PT        0.781395    0.623521    0.600599     0.004505
PT3104   PT        0.814466    0.592344    0.600592     0.004505
PT3105   PT        0.814557    0.625737    0.637979     0.004505
AU3106   AU        0.142111    0.656963    0.635273     0.007504
PT3107   PT        0.144176    0.692340    0.601554     0.004505
AU3108   AU        0.180894    0.655052    0.602510     0.007504
PT3109   PT        0.179638    0.690763    0.637767     0.004505
AU3110   AU        0.216294    0.656907    0.637572     0.007504
AU3111   AU        0.217609    0.692135    0.603788     0.007504
PT3112   PT        0.254711    0.657784    0.603805     0.004505
PT3113   PT        0.255014    0.691772    0.639558     0.004505
AU3114   AU        0.289653    0.657866    0.639145     0.007504
AU3115   AU        0.290406    0.688283    0.602284     0.007504
PT3116   PT        0.326135    0.655230    0.601746     0.004505
PT3117   PT        0.325632    0.691186    0.635812     0.004505
AU3118   AU        0.359604    0.655696    0.637834     0.007504
PT3119   PT        0.360482    0.690556    0.601298     0.004505
AU3120   AU        0.395330    0.654825    0.601750     0.007504
PT3121   PT        0.393595    0.689126    0.637328     0.004505
PT3122   PT        0.429384    0.655754    0.636185     0.004505
AU3123   AU        0.429926    0.690795    0.602776     0.007504
PT3124   PT        0.463553    0.657556    0.602867     0.004505
PT3125   PT        0.464577    0.690883    0.637071     0.004505
AU3126   AU        0.497820    0.655307    0.637528     0.007504
PT3127   PT        0.498323    0.688215    0.599652     0.004505
PT3128   PT        0.534745    0.655704    0.599990     0.004505
AU3129   AU        0.533337    0.687757    0.636504     0.007504
AU3130   AU        0.568342    0.657114    0.635939     0.007504
AU3131   AU        0.570436    0.692060    0.602222     0.007504
PT3132   PT        0.604707    0.655848    0.600860     0.004505
PT3133   PT        0.604533    0.689872    0.636576     0.004505
AU3134   AU        0.637995    0.656123    0.636881     0.007504
AU3135   AU        0.638733    0.692282    0.602865     0.007504
PT3136   PT        0.675001    0.657086    0.604947     0.004505
AU3137   AU        0.672370    0.691124    0.637535     0.007504
AU3138   AU        0.709543    0.656185    0.636617     0.007504
AU3139   AU        0.708793    0.690745    0.603602     0.007504
PT3140   PT        0.744690    0.654834    0.602788     0.004505
PT3141   PT        0.745679    0.691500    0.635224     0.004505
PT3142   PT        0.782172    0.695071    0.675151     0.004505
PT3143   PT        0.787631    0.720953    0.570772     0.004505
PT3144   PT        0.181070    0.724484    0.603669     0.004505
AU3145   AU        0.218171    0.725637    0.638231     0.007504
PT3146   PT        0.217370    0.757519    0.600809     0.004505
AU3147   AU        0.254929    0.723404    0.602342     0.007504
PT3148   PT        0.251650    0.759747    0.634653     0.004505
PT3149   PT        0.287335    0.726659    0.639675     0.004505
AU3150   AU        0.285455    0.759445    0.601050     0.007504
AU3151   AU        0.322428    0.721886    0.602485     0.007504
PT3152   PT        0.322919    0.757597    0.632314     0.004505
AU3153   AU        0.360031    0.723093    0.636592     0.007504
PT3154   PT        0.360046    0.754291    0.599612     0.004505
AU3155   AU        0.394578    0.721906    0.602512     0.007504
PT3156   PT        0.394462    0.755224    0.637893     0.004505
PT3157   PT        0.428923    0.721925    0.637010     0.004505
PT3158   PT        0.428150    0.756340    0.600622     0.004505
PT3159   PT        0.464485    0.722361    0.599715     0.004505
AU3160   AU        0.461390    0.757709    0.636716     0.007504
AU3161   AU        0.499599    0.723462    0.635009     0.007504
PT3162   PT        0.496986    0.757381    0.602143     0.004505
PT3163   PT        0.532109    0.721993    0.600156     0.004505
AU3164   AU        0.534202    0.757400    0.634393     0.007504
AU3165   AU        0.569930    0.723756    0.639898     0.007504
AU3166   AU        0.568855    0.758184    0.602552     0.007504
PT3167   PT        0.605827    0.725487    0.599243     0.004505
AU3168   AU        0.603576    0.757618    0.638773     0.007504
AU3169   AU        0.637562    0.725633    0.637696     0.007504
AU3170   AU        0.638597    0.757702    0.602062     0.007504
AU3171   AU        0.674166    0.726205    0.602379     0.007504
PT3172   PT        0.675562    0.763315    0.636397     0.004505
AU3173   AU        0.708883    0.728854    0.637756     0.007504
AU3174   AU        0.712689    0.759368    0.598893     0.007504
PT3175   PT        0.748089    0.727008    0.603624     0.004505
PT3176   PT        0.285550    0.796116    0.635183     0.004505
PT3177   PT        0.322309    0.792664    0.599183     0.004505
PT3178   PT        0.360011    0.789335    0.636725     0.004505
PT3179   PT        0.357839    0.822378    0.603325     0.004505
AU3180   AU        0.392090    0.789075    0.601001     0.007504
AU3181   AU        0.392768    0.823312    0.638576     0.007504
PT3182   PT        0.427410    0.791399    0.636234     0.004505
PT3183   PT        0.422584    0.826250    0.601591     0.004505
PT3184   PT        0.462198    0.791679    0.601420     0.004505
AU3185   AU        0.463295    0.825668    0.634157     0.007504
PT3186   PT        0.497373    0.793093    0.637783     0.004505
AU3187   AU        0.499201    0.826871    0.599238     0.007504
AU3188   AU        0.531334    0.791201    0.602112     0.007504
PT3189   PT        0.533646    0.826100    0.635809     0.004505
AU3190   AU        0.567610    0.790630    0.641092     0.007504
AU3191   AU        0.569538    0.823284    0.601894     0.007504
AU3192   AU        0.603874    0.790354    0.602365     0.007504
AU3193   AU        0.637284    0.792053    0.636475     0.007504
AU3194   AU        0.287814    0.162022    0.673904     0.007504
PT3195   PT        0.322633    0.163228    0.710815     0.004505
AU3196   AU        0.358903    0.161040    0.675525     0.007504
AU3197   AU        0.394110    0.126973    0.673501     0.007504
AU3198   AU        0.394949    0.164213    0.706361     0.007504
PT3199   PT        0.398187    0.091571    0.711154     0.004505
PT3200   PT        0.431079    0.164076    0.674107     0.004505
AU3201   AU        0.466116    0.126393    0.671635     0.007504
AU3202   AU        0.464504    0.161687    0.709210     0.007504
AU3203   AU        0.499360    0.129498    0.708819     0.007504
AU3204   AU        0.498632    0.162444    0.672735     0.007504
PT3205   PT        0.533015    0.131004    0.674541     0.004505
AU3206   AU        0.536073    0.161422    0.708745     0.007504
PT3207   PT        0.568775    0.164227    0.670403     0.004505
PT3208   PT        0.604754    0.163334    0.709650     0.004505
PT3209   PT        0.641715    0.163738    0.671916     0.004505
PT3210   PT        0.215744    0.228314    0.671526     0.004505
AU3211   AU        0.251985    0.194970    0.674109     0.007504
PT3212   PT        0.254038    0.228347    0.708640     0.004505
AU3213   AU        0.287145    0.194404    0.710430     0.007504
AU3214   AU        0.289304    0.229215    0.674021     0.007504
AU3215   AU        0.324132    0.194198    0.675689     0.007504
AU3216   AU        0.323221    0.230911    0.708774     0.007504
AU3217   AU        0.360522    0.199158    0.707256     0.007504
AU3218   AU        0.360974    0.229641    0.671229     0.007504
AU3219   AU        0.395712    0.197946    0.672475     0.007504
PT3220   PT        0.396017    0.229003    0.709173     0.004505
PT3221   PT        0.432373    0.195481    0.707828     0.004505
PT3222   PT        0.430454    0.231145    0.673010     0.004505
AU3223   AU        0.465961    0.196526    0.671316     0.007504
PT3224   PT        0.466249    0.230126    0.707310     0.004505
AU3225   AU        0.499504    0.196011    0.711452     0.007504
AU3226   AU        0.498966    0.229914    0.672077     0.007504
AU3227   AU        0.534202    0.195056    0.674342     0.007504
AU3228   AU        0.534507    0.229168    0.706439     0.007504
AU3229   AU        0.569759    0.196979    0.708412     0.007504
AU3230   AU        0.568606    0.228839    0.672943     0.007504
PT3231   PT        0.606007    0.196510    0.675415     0.004505
AU3232   AU        0.605875    0.229437    0.707588     0.007504
AU3233   AU        0.640948    0.195496    0.710827     0.007504
AU3234   AU        0.640451    0.228389    0.673590     0.007504
AU3235   AU        0.675159    0.197659    0.672305     0.007504
PT3236   PT        0.674661    0.231229    0.711771     0.004505
PT3237   PT        0.708755    0.228959    0.674285     0.004505
AU3238   AU        0.144272    0.296947    0.673895     0.007504
AU3239   AU        0.181823    0.258849    0.675143     0.007504
AU3240   AU        0.179485    0.297700    0.708866     0.007504
AU3241   AU        0.219716    0.260484    0.707577     0.007504
AU3242   AU        0.216368    0.293590    0.673240     0.007504
AU3243   AU        0.254360    0.261367    0.674275     0.007504
AU3244   AU        0.252070    0.294823    0.708848     0.007504
AU3245   AU        0.288465    0.264593    0.709186     0.007504
PT3246   PT        0.290250    0.296310    0.673632     0.004505
PT3247   PT        0.326038    0.263314    0.673220     0.004505
AU3248   AU        0.325565    0.295351    0.708205     0.007504
AU3249   AU        0.359196    0.261513    0.708625     0.007504
AU3250   AU        0.360436    0.296849    0.672011     0.007504
PT3251   PT        0.394216    0.261369    0.675517     0.004505
PT3252   PT        0.395961    0.296470    0.706813     0.004505
PT3253   PT        0.429815    0.263798    0.708437     0.004505
AU3254   AU        0.430749    0.296702    0.673139     0.007504
PT3255   PT        0.464944    0.263314    0.672317     0.004505
AU3256   AU        0.465008    0.295273    0.707204     0.007504
PT3257   PT        0.500056    0.263768    0.708960     0.004505
AU3258   AU        0.499808    0.297543    0.672155     0.007504
AU3259   AU        0.532498    0.262659    0.671878     0.007504
PT3260   PT        0.535655    0.296397    0.706697     0.004505
AU3261   AU        0.570032    0.261797    0.707099     0.007504
PT3262   PT        0.570237    0.296475    0.671703     0.004505
AU3263   AU        0.606725    0.262090    0.674002     0.007504
PT3264   PT        0.604490    0.297441    0.706110     0.004505
AU3265   AU        0.638571    0.263846    0.708747     0.007504
PT3266   PT        0.639434    0.294608    0.671040     0.004505
PT3267   PT        0.673939    0.263009    0.674526     0.004505
PT3268   PT        0.676770    0.296229    0.707769     0.004505
PT3269   PT        0.709699    0.264786    0.710632     0.004505
AU3270   AU        0.709599    0.296438    0.672844     0.007504
AU3271   AU        0.747537    0.263568    0.676382     0.007504
AU3272   AU        0.748692    0.296008    0.709962     0.007504
PT3273   PT        0.781965    0.297876    0.674701     0.004505
AU3274   AU        0.140203    0.330470    0.707900     0.007504
AU3275   AU        0.144196    0.360209    0.671193     0.007504
AU3276   AU        0.181128    0.328092    0.673592     0.007504
AU3277   AU        0.180406    0.360143    0.708913     0.007504
PT3278   PT        0.215860    0.328001    0.713587     0.004505
AU3279   AU        0.215919    0.360264    0.674081     0.007504
PT3280   PT        0.254318    0.329207    0.674681     0.004505
AU3281   AU        0.252497    0.361420    0.711413     0.007504
AU3282   AU        0.290151    0.329740    0.707301     0.007504
AU3283   AU        0.291031    0.361412    0.673841     0.007504
AU3284   AU        0.326667    0.328031    0.671239     0.007504
PT3285   PT        0.327493    0.361150    0.707986     0.004505
PT3286   PT        0.360877    0.328365    0.707095     0.004505
PT3287   PT        0.359559    0.360245    0.673657     0.004505
PT3288   PT        0.395509    0.329915    0.671283     0.004505
PT3289   PT        0.395526    0.362408    0.706397     0.004505
PT3290   PT        0.429285    0.328504    0.707169     0.004505
PT3291   PT        0.430088    0.361769    0.671295     0.004505
PT3292   PT        0.465080    0.329099    0.672748     0.004505
PT3293   PT        0.463237    0.361470    0.706788     0.004505
AU3294   AU        0.499594    0.329689    0.707788     0.007504
PT3295   PT        0.501172    0.363250    0.671209     0.004505
PT3296   PT        0.536030    0.329062    0.673011     0.004505
PT3297   PT        0.535617    0.361766    0.707921     0.004505
PT3298   PT        0.569424    0.329205    0.708075     0.004505
AU3299   AU        0.570029    0.361442    0.671751     0.007504
PT3300   PT        0.605701    0.328902    0.671095     0.004505
AU3301   AU        0.604500    0.362294    0.706663     0.007504
PT3302   PT        0.640375    0.328604    0.707516     0.004505
PT3303   PT        0.638854    0.361347    0.671055     0.004505
AU3304   AU        0.674914    0.328994    0.671765     0.007504
AU3305   AU        0.675020    0.361335    0.707235     0.007504
PT3306   PT        0.712130    0.328115    0.706627     0.004505
AU3307   AU        0.710893    0.362420    0.671624     0.007504
AU3308   AU        0.745335    0.328361    0.674241     0.007504
AU3309   AU        0.746965    0.364149    0.708620     0.007504
PT3310   PT        0.784250    0.331574    0.708519     0.004505
AU3311   AU        0.779900    0.362070    0.672814     0.007504
AU3312   AU        0.105126    0.394244    0.672808     0.007504
AU3313   AU        0.107237    0.427569    0.709165     0.007504
AU3314   AU        0.142612    0.393211    0.711864     0.007504
AU3315   AU        0.141790    0.425912    0.673752     0.007504
AU3316   AU        0.177921    0.394646    0.672778     0.007504
AU3317   AU        0.178817    0.425904    0.708829     0.007504
AU3318   AU        0.216432    0.396266    0.707645     0.007504
PT3319   PT        0.218222    0.425841    0.672478     0.004505
AU3320   AU        0.254957    0.393669    0.672726     0.007504
AU3321   AU        0.255343    0.427837    0.706446     0.007504
PT3322   PT        0.290006    0.393382    0.707719     0.004505
PT3323   PT        0.290030    0.425676    0.671737     0.004505
PT3324   PT        0.325359    0.392057    0.672029     0.004505
AU3325   AU        0.324223    0.425673    0.708702     0.007504
PT3326   PT        0.358885    0.394066    0.707700     0.004505
PT3327   PT        0.359577    0.425916    0.672459     0.004505
PT3328   PT        0.395705    0.394347    0.670451     0.004505
PT3329   PT        0.396075    0.427421    0.705331     0.004505
AU3330   AU        0.430372    0.394995    0.706515     0.007504
PT3331   PT        0.430872    0.427598    0.672308     0.004505
AU3332   AU        0.465893    0.394139    0.672400     0.007504
AU3333   AU        0.465510    0.427137    0.706601     0.007504
PT3334   PT        0.499835    0.393065    0.707155     0.004505
PT3335   PT        0.500409    0.427163    0.672748     0.004505
PT3336   PT        0.535257    0.395088    0.671294     0.004505
AU3337   AU        0.535434    0.427208    0.706966     0.007504
PT3338   PT        0.571214    0.393569    0.705079     0.004505
AU3339   AU        0.569865    0.427754    0.670473     0.007504
PT3340   PT        0.605018    0.394575    0.671901     0.004505
AU3341   AU        0.604110    0.428255    0.705563     0.007504
AU3342   AU        0.639121    0.394311    0.706076     0.007504
AU3343   AU        0.640106    0.427804    0.671445     0.007504
AU3344   AU        0.675368    0.392928    0.670840     0.007504
PT3345   PT        0.673146    0.426578    0.706480     0.004505
AU3346   AU        0.709252    0.394717    0.706568     0.007504
PT3347   PT        0.709300    0.426351    0.670243     0.004505
AU3348   AU        0.746482    0.395424    0.674132     0.007504
AU3349   AU        0.748572    0.428380    0.708569     0.007504
AU3350   AU        0.782425    0.396527    0.709256     0.007504
AU3351   AU        0.782043    0.427861    0.673376     0.007504
PT3352   PT        0.815558    0.395479    0.671058     0.004505
PT3353   PT        0.819759    0.427683    0.710870     0.004505
PT3354   PT        0.102610    0.457581    0.671333     0.004505
AU3355   AU        0.105175    0.490737    0.709424     0.007504
PT3356   PT        0.143470    0.458347    0.708703     0.004505
AU3357   AU        0.143240    0.491608    0.675922     0.007504
PT3358   PT        0.181194    0.457665    0.670865     0.004505
PT3359   PT        0.181318    0.491263    0.710353     0.004505
AU3360   AU        0.217604    0.458698    0.709286     0.007504
AU3361   AU        0.216990    0.493619    0.670250     0.007504
PT3362   PT        0.253230    0.459023    0.671910     0.004505
PT3363   PT        0.251289    0.490139    0.709030     0.004505
AU3364   AU        0.289289    0.459263    0.708563     0.007504
PT3365   PT        0.290239    0.491224    0.673745     0.004505
PT3366   PT        0.324043    0.459170    0.672917     0.004505
PT3367   PT        0.325246    0.492954    0.706380     0.004505
PT3368   PT        0.360888    0.459462    0.707373     0.004505
AU3369   AU        0.361204    0.491540    0.672262     0.007504
PT3370   PT        0.395563    0.460238    0.670414     0.004505
PT3371   PT        0.393393    0.492836    0.706361     0.004505
PT3372   PT        0.430361    0.460616    0.706987     0.004505
AU3373   AU        0.431423    0.492309    0.673733     0.007504
PT3374   PT        0.465623    0.459274    0.671828     0.004505
AU3375   AU        0.465573    0.492402    0.707136     0.007504
AU3376   AU        0.500113    0.459374    0.706985     0.007504
PT3377   PT        0.499957    0.492902    0.671627     0.004505
PT3378   PT        0.535175    0.460058    0.671610     0.004505
PT3379   PT        0.534612    0.493156    0.705953     0.004505
PT3380   PT        0.569343    0.460308    0.706645     0.004505
AU3381   AU        0.569829    0.493055    0.671790     0.007504
AU3382   AU        0.604490    0.459562    0.671438     0.007504
PT3383   PT        0.604753    0.491896    0.706324     0.004505
PT3384   PT        0.638882    0.459168    0.707418     0.004505
AU3385   AU        0.640729    0.492535    0.671657     0.007504
AU3386   AU        0.676255    0.459264    0.670907     0.007504
AU3387   AU        0.675372    0.492131    0.708467     0.007504
PT3388   PT        0.709703    0.458546    0.707971     0.004505
PT3389   PT        0.713076    0.491574    0.672846     0.004505
PT3390   PT        0.746853    0.458621    0.673676     0.004505
PT3391   PT        0.746743    0.494953    0.710093     0.004505
AU3392   AU        0.783996    0.464174    0.712417     0.007504
AU3393   AU        0.778212    0.493168    0.671973     0.007504
AU3394   AU        0.818662    0.458672    0.674534     0.007504
PT3395   PT        0.818532    0.496043    0.706732     0.004505
AU3396   AU        0.076866    0.562283    0.675454     0.007504
AU3397   AU        0.143067    0.525429    0.711991     0.007504
PT3398   PT        0.142501    0.555051    0.672423     0.004505
AU3399   AU        0.177908    0.523762    0.673113     0.007504
AU3400   AU        0.181024    0.554834    0.709080     0.007504
PT3401   PT        0.217102    0.523282    0.708710     0.004505
PT3402   PT        0.215877    0.558352    0.672061     0.004505
PT3403   PT        0.253732    0.524327    0.672681     0.004505
AU3404   AU        0.253086    0.555412    0.706506     0.007504
PT3405   PT        0.290926    0.526188    0.705996     0.004505
AU3406   AU        0.290489    0.558738    0.672310     0.007504
PT3407   PT        0.325806    0.523681    0.671981     0.004505
AU3408   AU        0.326248    0.557063    0.706044     0.007504
AU3409   AU        0.360543    0.525242    0.707587     0.007504
PT3410   PT        0.358520    0.558209    0.669547     0.004505
PT3411   PT        0.394767    0.525006    0.671512     0.004505
AU3412   AU        0.394701    0.557904    0.705813     0.007504
AU3413   AU        0.430307    0.524271    0.707081     0.007504
PT3414   PT        0.431361    0.559136    0.671481     0.004505
PT3415   PT        0.464176    0.524889    0.672268     0.004505
PT3416   PT        0.463400    0.558569    0.706995     0.004505
PT3417   PT        0.499375    0.525462    0.706834     0.004505
PT3418   PT        0.499530    0.556938    0.671421     0.004505
PT3419   PT        0.534228    0.524513    0.670138     0.004505
PT3420   PT        0.535213    0.556034    0.706556     0.004505
PT3421   PT        0.570078    0.525823    0.707079     0.004505
PT3422   PT        0.571440    0.558036    0.671470     0.004505
AU3423   AU        0.605189    0.526041    0.672384     0.007504
PT3424   PT        0.604932    0.557391    0.707097     0.004505
PT3425   PT        0.639606    0.523509    0.707055     0.004505
AU3426   AU        0.639165    0.558339    0.671348     0.007504
AU3427   AU        0.674120    0.525952    0.670859     0.007504
PT3428   PT        0.673611    0.558316    0.705283     0.004505
PT3429   PT        0.710283    0.523584    0.706226     0.004505
PT3430   PT        0.708589    0.557149    0.671210     0.004505
PT3431   PT        0.746958    0.527266    0.673574     0.004505
PT3432   PT        0.746148    0.559519    0.707703     0.004505
PT3433   PT        0.782487    0.526630    0.707665     0.004505
PT3434   PT        0.780190    0.560473    0.672521     0.004505
PT3435   PT        0.813901    0.525759    0.669560     0.004505
AU3436   AU        0.147736    0.589948    0.706113     0.007504
PT3437   PT        0.143288    0.623877    0.672107     0.004505
AU3438   AU        0.181638    0.589973    0.672056     0.007504
PT3439   PT        0.183332    0.622855    0.704714     0.004505
AU3440   AU        0.217211    0.590414    0.707394     0.007504
AU3441   AU        0.217497    0.626270    0.670377     0.007504
PT3442   PT        0.252277    0.590921    0.671573     0.004505
AU3443   AU        0.248830    0.626169    0.709737     0.007504
AU3444   AU        0.287443    0.589865    0.707057     0.007504
PT3445   PT        0.290364    0.624433    0.672694     0.004505
AU3446   AU        0.325872    0.591194    0.673394     0.007504
AU3447   AU        0.324811    0.624491    0.708220     0.007504
AU3448   AU        0.360399    0.591364    0.706734     0.007504
PT3449   PT        0.361374    0.624634    0.670788     0.004505
AU3450   AU        0.394572    0.590935    0.670914     0.007504
PT3451   PT        0.395101    0.624740    0.706586     0.004505
PT3452   PT        0.429855    0.591251    0.707433     0.004505
AU3453   AU        0.429753    0.624781    0.672223     0.007504
PT3454   PT        0.464816    0.591152    0.671379     0.004505
PT3455   PT        0.465759    0.623603    0.706187     0.004505
PT3456   PT        0.500696    0.590872    0.706500     0.004505
PT3457   PT        0.499262    0.623640    0.672254     0.004505
PT3458   PT        0.533715    0.591997    0.671879     0.004505
PT3459   PT        0.535939    0.622801    0.706932     0.004505
PT3460   PT        0.570139    0.589743    0.707802     0.004505
AU3461   AU        0.569838    0.621967    0.671868     0.007504
PT3462   PT        0.604514    0.591066    0.671592     0.004505
PT3463   PT        0.604010    0.622876    0.706484     0.004505
AU3464   AU        0.640199    0.591264    0.707516     0.007504
PT3465   PT        0.640446    0.621862    0.669417     0.004505
PT3466   PT        0.675613    0.589625    0.671293     0.004505
PT3467   PT        0.674635    0.623246    0.706213     0.004505
PT3468   PT        0.709315    0.590139    0.707386     0.004505
PT3469   PT        0.709185    0.624219    0.670755     0.004505
PT3470   PT        0.745024    0.590920    0.669187     0.004505
AU3471   AU        0.743964    0.621759    0.706761     0.007504
PT3472   PT        0.781509    0.594597    0.706465     0.004505
AU3473   AU        0.782024    0.624907    0.673072     0.007504
PT3474   PT        0.177688    0.656609    0.671661     0.004505
PT3475   PT        0.212711    0.657200    0.707342     0.004505
PT3476   PT        0.216323    0.688488    0.671561     0.004505
AU3477   AU        0.254938    0.657107    0.673744     0.007504
AU3478   AU        0.253373    0.691062    0.706841     0.007504
PT3479   PT        0.288516    0.658311    0.707408     0.004505
AU3480   AU        0.289655    0.691169    0.674089     0.007504
AU3481   AU        0.324341    0.658382    0.673126     0.007504
AU3482   AU        0.324925    0.691728    0.708874     0.007504
PT3483   PT        0.358952    0.656667    0.706431     0.004505
AU3484   AU        0.358481    0.691741    0.673051     0.007504
PT3485   PT        0.395851    0.657634    0.669686     0.004505
PT3486   PT        0.394086    0.689753    0.705170     0.004505
PT3487   PT        0.429412    0.657337    0.706699     0.004505
AU3488   AU        0.429569    0.689542    0.672097     0.007504
AU3489   AU        0.463875    0.656040    0.671377     0.007504
PT3490   PT        0.463310    0.688285    0.706011     0.004505
AU3491   AU        0.500125    0.658580    0.705765     0.007504
PT3492   PT        0.498397    0.691810    0.670431     0.004505
PT3493   PT        0.534552    0.656996    0.671452     0.004505
AU3494   AU        0.535619    0.688256    0.706229     0.007504
PT3495   PT        0.569370    0.655255    0.705768     0.004505
PT3496   PT        0.568355    0.690266    0.671354     0.004505
AU3497   AU        0.603725    0.654816    0.672642     0.007504
AU3498   AU        0.602413    0.690617    0.706499     0.007504
PT3499   PT        0.640729    0.655422    0.707445     0.004505
PT3500   PT        0.638106    0.690298    0.671847     0.004505
PT3501   PT        0.673648    0.656413    0.672046     0.004505
PT3502   PT        0.676023    0.692456    0.709833     0.004505
AU3503   AU        0.710441    0.658065    0.706832     0.007504
AU3504   AU        0.709674    0.689451    0.671238     0.007504
PT3505   PT        0.745108    0.654787    0.671405     0.004505
PT3506   PT        0.249640    0.724303    0.676087     0.004505
AU3507   AU        0.289847    0.724859    0.710855     0.007504
AU3508   AU        0.284346    0.758632    0.671703     0.007504
AU3509   AU        0.322509    0.724877    0.674954     0.007504
AU3510   AU        0.321222    0.759404    0.709484     0.007504
PT3511   PT        0.359636    0.724913    0.710499     0.004505
PT3512   PT        0.359699    0.754374    0.671171     0.004505
AU3513   AU        0.395599    0.722667    0.673613     0.007504
AU3514   AU        0.391950    0.757957    0.709403     0.007504
AU3515   AU        0.429055    0.722107    0.709443     0.007504
PT3516   PT        0.427664    0.757087    0.675338     0.004505
AU3517   AU        0.462477    0.724294    0.673396     0.007504
AU3518   AU        0.461766    0.758758    0.710666     0.007504
PT3519   PT        0.499110    0.726119    0.707115     0.004505
AU3520   AU        0.498839    0.756345    0.671161     0.007504
AU3521   AU        0.533869    0.722543    0.670693     0.007504
PT3522   PT        0.533737    0.759289    0.708442     0.004505
AU3523   AU        0.567604    0.725881    0.706749     0.007504
AU3524   AU        0.565396    0.756547    0.672055     0.007504
AU3525   AU        0.604045    0.723973    0.672415     0.007504
AU3526   AU        0.603835    0.759774    0.706293     0.007504
PT3527   PT        0.639522    0.723788    0.707000     0.004505
AU3528   AU        0.638230    0.759562    0.670643     0.007504
AU3529   AU        0.673339    0.724698    0.670312     0.007504
AU3530   AU        0.393538    0.790948    0.676761     0.007504
PT3531   PT        0.427922    0.793026    0.712796     0.004505
PT3532   PT        0.460767    0.791010    0.673206     0.004505
AU3533   AU        0.498846    0.792584    0.705087     0.007504
AU3534   AU        0.531721    0.793535    0.674882     0.007504
AU3535   AU        0.428854    0.163475    0.743815     0.007504
PT3536   PT        0.498998    0.163225    0.745557     0.004505
PT3537   PT        0.286754    0.233123    0.745413     0.004505
PT3538   PT        0.325138    0.196613    0.744507     0.004505
PT3539   PT        0.321931    0.229121    0.781304     0.004505
PT3540   PT        0.356970    0.230213    0.741477     0.004505
AU3541   AU        0.391591    0.196521    0.744241     0.007504
AU3542   AU        0.396601    0.230659    0.776430     0.007504
PT3543   PT        0.429134    0.197567    0.778536     0.004505
AU3544   AU        0.430867    0.230964    0.742458     0.007504
PT3545   PT        0.463515    0.196895    0.745921     0.004505
AU3546   AU        0.463736    0.228439    0.783176     0.007504
AU3547   AU        0.497478    0.194569    0.782188     0.007504
AU3548   AU        0.499475    0.229172    0.744537     0.007504
AU3549   AU        0.536242    0.194647    0.744614     0.007504
PT3550   PT        0.565733    0.227773    0.820517     0.004505
PT3551   PT        0.567536    0.228387    0.742937     0.004505
AU3552   AU        0.603433    0.197215    0.742269     0.007504
AU3553   AU        0.605433    0.231229    0.779309     0.007504
PT3554   PT        0.638495    0.230297    0.742250     0.004505
PT3555   PT        0.212265    0.294106    0.745960     0.004505
AU3556   AU        0.249211    0.262936    0.746000     0.007504
AU3557   AU        0.250667    0.296379    0.782727     0.007504
AU3558   AU        0.289442    0.263823    0.784552     0.007504
AU3559   AU        0.285711    0.296996    0.745983     0.007504
AU3560   AU        0.323269    0.262716    0.743436     0.007504
PT3561   PT        0.323885    0.294656    0.779067     0.004505
PT3562   PT        0.357261    0.261118    0.778446     0.004505
AU3563   AU        0.361518    0.295802    0.744307     0.007504
AU3564   AU        0.395397    0.263994    0.742145     0.007504
AU3565   AU        0.393203    0.296774    0.778575     0.007504
AU3566   AU        0.428136    0.264233    0.778748     0.007504
PT3567   PT        0.429493    0.296533    0.742845     0.004505
AU3568   AU        0.463154    0.262872    0.744076     0.007504
AU3569   AU        0.465731    0.296326    0.778979     0.007504
AU3570   AU        0.499284    0.261591    0.777595     0.007504
AU3571   AU        0.499442    0.295537    0.742863     0.007504
AU3572   AU        0.534346    0.263465    0.742886     0.007504
PT3573   PT        0.535473    0.295788    0.777206     0.004505
AU3574   AU        0.569224    0.261375    0.777536     0.007504
PT3575   PT        0.570304    0.296880    0.742401     0.004505
AU3576   AU        0.603835    0.263285    0.743348     0.007504
AU3577   AU        0.605828    0.297278    0.781034     0.007504
AU3578   AU        0.643003    0.263549    0.780054     0.007504
PT3579   PT        0.639519    0.295552    0.743387     0.004505
PT3580   PT        0.676854    0.265439    0.745290     0.004505
PT3581   PT        0.676060    0.298131    0.781191     0.004505
AU3582   AU        0.713059    0.297481    0.745662     0.007504
PT3583   PT        0.175524    0.329524    0.745689     0.004505
PT3584   PT        0.214616    0.329357    0.779028     0.004505
AU3585   AU        0.214735    0.362080    0.745275     0.007504
AU3586   AU        0.251701    0.328317    0.746967     0.007504
AU3587   AU        0.254378    0.361804    0.779772     0.007504
PT3588   PT        0.289118    0.329520    0.779903     0.004505
AU3589   AU        0.289575    0.360604    0.743205     0.007504
PT3590   PT        0.324272    0.326674    0.742931     0.004505
PT3591   PT        0.322462    0.362849    0.780295     0.004505
AU3592   AU        0.358437    0.328962    0.778879     0.007504
PT3593   PT        0.360348    0.361191    0.743366     0.004505
PT3594   PT        0.396425    0.329273    0.741525     0.004505
PT3595   PT        0.396234    0.360453    0.777678     0.004505
AU3596   AU        0.429408    0.328570    0.778642     0.007504
PT3597   PT        0.429150    0.361966    0.742737     0.004505
PT3598   PT        0.463976    0.328820    0.741807     0.004505
PT3599   PT        0.464539    0.362702    0.776875     0.004505
AU3600   AU        0.499386    0.327418    0.777023     0.007504
PT3601   PT        0.500333    0.361559    0.742867     0.004505
AU3602   AU        0.534181    0.329324    0.743015     0.007504
AU3603   AU        0.535056    0.362121    0.775231     0.007504
AU3604   AU        0.569952    0.331085    0.777294     0.007504
AU3605   AU        0.569451    0.362355    0.741741     0.007504
PT3606   PT        0.604292    0.329123    0.740819     0.004505
PT3607   PT        0.603222    0.362199    0.777449     0.004505
AU3608   AU        0.637930    0.329477    0.779197     0.007504
AU3609   AU        0.638648    0.361415    0.741397     0.007504
AU3610   AU        0.674123    0.326144    0.741586     0.007504
PT3611   PT        0.674428    0.361375    0.776405     0.004505
PT3612   PT        0.711485    0.266881    0.781747     0.004505
AU3613   AU        0.710668    0.361937    0.743104     0.007504
AU3614   AU        0.748201    0.331124    0.743751     0.007504
PT3615   PT        0.140553    0.429379    0.747249     0.004505
PT3616   PT        0.178750    0.394241    0.743052     0.004505
AU3617   AU        0.179092    0.421384    0.780303     0.007504
AU3618   AU        0.215875    0.392254    0.779659     0.007504
AU3619   AU        0.215336    0.426226    0.744548     0.007504
AU3620   AU        0.253985    0.395488    0.744708     0.007504
AU3621   AU        0.253715    0.427343    0.782701     0.007504
AU3622   AU        0.289674    0.396176    0.779684     0.007504
PT3623   PT        0.290080    0.426603    0.743283     0.004505
AU3624   AU        0.325860    0.392856    0.743157     0.007504
PT3625   PT        0.325450    0.427428    0.777578     0.004505
AU3626   AU        0.360752    0.395388    0.775880     0.007504
PT3627   PT        0.360154    0.427256    0.741511     0.004505
AU3628   AU        0.394904    0.394806    0.742534     0.007504
PT3629   PT        0.395360    0.427111    0.777173     0.004505
AU3630   AU        0.429813    0.394464    0.776084     0.007504
PT3631   PT        0.428913    0.427008    0.741334     0.004505
PT3632   PT        0.465597    0.394156    0.742164     0.004505
PT3633   PT        0.464744    0.427537    0.776096     0.004505
AU3634   AU        0.501026    0.394901    0.776100     0.007504
AU3635   AU        0.500343    0.428941    0.741422     0.007504
AU3636   AU        0.535967    0.394936    0.741136     0.007504
PT3637   PT        0.534205    0.426226    0.777434     0.004505
PT3638   PT        0.570927    0.393225    0.778923     0.004505
AU3639   AU        0.570407    0.427360    0.741907     0.007504
AU3640   AU        0.604628    0.394316    0.742452     0.007504
PT3641   PT        0.604937    0.425563    0.778311     0.004505
AU3642   AU        0.640021    0.396192    0.778535     0.007504
AU3643   AU        0.640562    0.427183    0.740743     0.007504
AU3644   AU        0.675254    0.393523    0.740529     0.007504
PT3645   PT        0.676143    0.426633    0.775217     0.004505
PT3646   PT        0.710099    0.394522    0.777598     0.004505
PT3647   PT        0.709464    0.426571    0.742003     0.004505
PT3648   PT        0.745572    0.396208    0.743171     0.004505
PT3649   PT        0.747401    0.427899    0.776196     0.004505
PT3650   PT        0.786091    0.432117    0.746207     0.004505
PT3651   PT        0.143417    0.491263    0.742991     0.004505
AU3652   AU        0.180057    0.457197    0.747688     0.007504
AU3653   AU        0.175271    0.492555    0.780229     0.007504
PT3654   PT        0.211983    0.460181    0.782035     0.004505
PT3655   PT        0.213904    0.492001    0.747158     0.004505
PT3656   PT        0.251653    0.457586    0.743809     0.004505
AU3657   AU        0.251911    0.488659    0.779890     0.007504
AU3658   AU        0.289538    0.460119    0.776873     0.007504
AU3659   AU        0.289554    0.493400    0.742031     0.007504
AU3660   AU        0.323896    0.461778    0.741967     0.007504
AU3661   AU        0.324988    0.493487    0.776046     0.007504
PT3662   PT        0.361618    0.459350    0.776230     0.004505
PT3663   PT        0.359780    0.491661    0.742005     0.004505
AU3664   AU        0.395394    0.458886    0.742465     0.007504
PT3665   PT        0.396999    0.492913    0.775213     0.004505
PT3666   PT        0.429244    0.460289    0.777003     0.004505
PT3667   PT        0.430199    0.491558    0.741904     0.004505
PT3668   PT        0.465697    0.460643    0.742367     0.004505
AU3669   AU        0.464755    0.494277    0.776426     0.007504
AU3670   AU        0.500935    0.458970    0.778610     0.007504
PT3671   PT        0.500853    0.492441    0.741154     0.004505
PT3672   PT        0.535615    0.460117    0.741497     0.004505
PT3673   PT        0.535109    0.492381    0.778276     0.004505
PT3674   PT        0.570820    0.459357    0.777898     0.004505
AU3675   AU        0.570356    0.491846    0.742113     0.007504
PT3676   PT        0.605453    0.460227    0.740747     0.004505
AU3677   AU        0.605152    0.491317    0.775717     0.007504
PT3678   PT        0.638941    0.459920    0.777195     0.004505
PT3679   PT        0.640909    0.493207    0.741202     0.004505
PT3680   PT        0.673908    0.460206    0.742333     0.004505
AU3681   AU        0.675544    0.491147    0.778779     0.007504
AU3682   AU        0.710218    0.460513    0.778133     0.007504
PT3683   PT        0.709109    0.491875    0.743931     0.004505
AU3684   AU        0.744133    0.461431    0.743636     0.007504
AU3685   AU        0.748619    0.495220    0.778953     0.007504
PT3686   PT        0.855569    0.502142    0.743096     0.004505
PT3687   PT        0.179871    0.524710    0.744981     0.004505
AU3688   AU        0.214354    0.524347    0.779916     0.007504
AU3689   AU        0.216115    0.555952    0.743105     0.007504
AU3690   AU        0.250801    0.521737    0.743991     0.007504
AU3691   AU        0.252034    0.557475    0.776083     0.007504
PT3692   PT        0.285650    0.523985    0.778587     0.004505
PT3693   PT        0.289763    0.558527    0.741380     0.004505
PT3694   PT        0.325491    0.526479    0.741161     0.004505
AU3695   AU        0.323153    0.558108    0.776812     0.007504
AU3696   AU        0.358968    0.524769    0.776414     0.007504
AU3697   AU        0.360518    0.557905    0.742894     0.007504
PT3698   PT        0.395668    0.526527    0.740108     0.004505
PT3699   PT        0.395183    0.557590    0.775921     0.004505
PT3700   PT        0.431108    0.524845    0.775816     0.004505
PT3701   PT        0.429710    0.557269    0.741850     0.004505
PT3702   PT        0.466689    0.525247    0.741653     0.004505
AU3703   AU        0.464826    0.557492    0.776656     0.007504
AU3704   AU        0.499886    0.523823    0.776362     0.007504
PT3705   PT        0.500090    0.558283    0.741759     0.004505
PT3706   PT        0.535154    0.524993    0.740763     0.004505
PT3707   PT        0.534307    0.558740    0.776098     0.004505
AU3708   AU        0.569514    0.525494    0.776789     0.007504
PT3709   PT        0.569340    0.557552    0.739921     0.004505
PT3710   PT        0.605031    0.525064    0.741594     0.004505
PT3711   PT        0.606108    0.557678    0.775999     0.004505
AU3712   AU        0.643024    0.523403    0.777048     0.007504
AU3713   AU        0.639992    0.558304    0.741289     0.007504
AU3714   AU        0.675874    0.525356    0.740523     0.007504
AU3715   AU        0.675969    0.556668    0.778158     0.007504
AU3716   AU        0.709771    0.524130    0.775532     0.007504
PT3717   PT        0.708623    0.557431    0.741650     0.004505
AU3718   AU        0.745076    0.526301    0.739898     0.007504
PT3719   PT        0.184770    0.588368    0.742892     0.004505
AU3720   AU        0.215172    0.590421    0.782484     0.007504
AU3721   AU        0.213327    0.624981    0.746784     0.007504
AU3722   AU        0.250836    0.591489    0.745028     0.007504
AU3723   AU        0.252431    0.625681    0.780817     0.007504
PT3724   PT        0.289172    0.592536    0.776616     0.004505
PT3725   PT        0.287198    0.625083    0.741776     0.004505
PT3726   PT        0.323744    0.592986    0.741698     0.004505
PT3727   PT        0.327401    0.623783    0.776614     0.004505
AU3728   AU        0.360726    0.590720    0.774562     0.007504
PT3729   PT        0.360751    0.623280    0.741356     0.004505
PT3730   PT        0.396146    0.589031    0.740792     0.004505
AU3731   AU        0.395093    0.623147    0.775676     0.007504
AU3732   AU        0.429774    0.591622    0.775699     0.007504
AU3733   AU        0.428938    0.624634    0.741732     0.007504
PT3734   PT        0.465339    0.591021    0.739824     0.004505
AU3735   AU        0.464029    0.623479    0.777069     0.007504
AU3736   AU        0.498880    0.590914    0.776813     0.007504
PT3737   PT        0.499095    0.623672    0.740070     0.004505
PT3738   PT        0.534614    0.588998    0.740304     0.004505
PT3739   PT        0.534206    0.621712    0.774415     0.004505
PT3740   PT        0.569246    0.590211    0.774991     0.004505
PT3741   PT        0.570714    0.621631    0.741248     0.004505
AU3742   AU        0.606874    0.591080    0.740885     0.007504
PT3743   PT        0.607267    0.622675    0.776180     0.004505
AU3744   AU        0.639703    0.589675    0.777492     0.007504
AU3745   AU        0.640309    0.624235    0.742162     0.007504
AU3746   AU        0.675548    0.590520    0.744930     0.007504
AU3747   AU        0.675127    0.623400    0.778958     0.007504
AU3748   AU        0.711664    0.592367    0.783584     0.007504
AU3749   AU        0.709554    0.623407    0.738892     0.007504
AU3750   AU        0.743546    0.591141    0.742343     0.007504
AU3751   AU        0.248924    0.657851    0.743924     0.007504
PT3752   PT        0.291118    0.654151    0.777074     0.004505
AU3753   AU        0.287346    0.689130    0.743632     0.007504
AU3754   AU        0.325244    0.658029    0.742990     0.007504
PT3755   PT        0.323452    0.692107    0.777416     0.004505
AU3756   AU        0.361100    0.655528    0.775100     0.007504
PT3757   PT        0.360179    0.690259    0.742810     0.004505
AU3758   AU        0.394051    0.657625    0.742089     0.007504
PT3759   PT        0.395060    0.690054    0.775719     0.004505
PT3760   PT        0.430394    0.657755    0.776900     0.004505
PT3761   PT        0.429377    0.690140    0.741186     0.004505
AU3762   AU        0.463651    0.656307    0.741903     0.007504
PT3763   PT        0.464786    0.692277    0.775694     0.004505
AU3764   AU        0.499951    0.656008    0.777756     0.007504
AU3765   AU        0.499666    0.691618    0.741179     0.007504
AU3766   AU        0.534370    0.655721    0.742142     0.007504
PT3767   PT        0.531732    0.689639    0.777224     0.004505
PT3768   PT        0.569649    0.656146    0.775114     0.004505
PT3769   PT        0.568243    0.689872    0.740353     0.004505
PT3770   PT        0.604702    0.654384    0.740889     0.004505
PT3771   PT        0.604299    0.687301    0.777597     0.004505
AU3772   AU        0.640372    0.656367    0.780186     0.007504
AU3773   AU        0.638967    0.688300    0.742555     0.007504
PT3774   PT        0.674849    0.655295    0.744209     0.004505
AU3775   AU        0.323524    0.726161    0.743981     0.007504
AU3776   AU        0.394808    0.726274    0.744026     0.007504
PT3777   PT        0.429633    0.727492    0.779872     0.004505
AU3778   AU        0.425019    0.759828    0.744623     0.007504
PT3779   PT        0.463589    0.725342    0.742619     0.004505
PT3780   PT        0.496817    0.725959    0.778357     0.004505
PT3781   PT        0.500885    0.757789    0.745301     0.004505
PT3782   PT        0.537703    0.724831    0.744473     0.004505
AU3783   AU        0.602934    0.721242    0.741075     0.007504
AU3784   AU        0.429545    0.227211    0.815695     0.007504
AU3785   AU        0.465111    0.199299    0.822813     0.007504
AU3786   AU        0.288839    0.292261    0.821608     0.007504
AU3787   AU        0.359540    0.296436    0.813860     0.007504
AU3788   AU        0.396679    0.263661    0.815953     0.007504
AU3789   AU        0.394957    0.297456    0.853663     0.007504
AU3790   AU        0.428846    0.297519    0.813350     0.007504
AU3791   AU        0.464022    0.264344    0.817915     0.007504
PT3792   PT        0.461053    0.294321    0.853143     0.004505
AU3793   AU        0.499363    0.295276    0.814222     0.007504
AU3794   AU        0.535623    0.263805    0.812064     0.007504
PT3795   PT        0.535946    0.296736    0.849394     0.004505
PT3796   PT        0.570050    0.296352    0.814247     0.004505
AU3797   AU        0.637740    0.295176    0.819357     0.007504
AU3798   AU        0.288555    0.361626    0.816295     0.007504
AU3799   AU        0.323249    0.326493    0.812933     0.007504
PT3800   PT        0.324941    0.362325    0.847995     0.004505
AU3801   AU        0.360494    0.328148    0.847216     0.007504
PT3802   PT        0.361234    0.360986    0.812005     0.004505
AU3803   AU        0.394675    0.327636    0.813121     0.007504
AU3804   AU        0.394050    0.360421    0.846683     0.007504
AU3805   AU        0.429966    0.330322    0.847968     0.007504
PT3806   PT        0.430702    0.362497    0.812131     0.004505
PT3807   PT        0.465030    0.330935    0.812566     0.004505
AU3808   AU        0.464281    0.362630    0.848137     0.007504
PT3809   PT        0.497987    0.328739    0.848244     0.004505
PT3810   PT        0.499296    0.362388    0.812464     0.004505
AU3811   AU        0.533958    0.329472    0.812904     0.007504
AU3812   AU        0.533296    0.364206    0.850874     0.007504
PT3813   PT        0.569240    0.329889    0.850047     0.004505
AU3814   AU        0.569599    0.360708    0.814271     0.007504
AU3815   AU        0.604057    0.328895    0.816679     0.007504
PT3816   PT        0.605701    0.359687    0.852615     0.004505
AU3817   AU        0.638044    0.361888    0.815379     0.007504
AU3818   AU        0.212565    0.425013    0.815149     0.007504
AU3819   AU        0.254390    0.392619    0.817211     0.007504
PT3820   PT        0.291169    0.394821    0.856585     0.004505
AU3821   AU        0.287055    0.429251    0.819721     0.007504
AU3822   AU        0.325345    0.395604    0.814965     0.007504
AU3823   AU        0.322877    0.428517    0.852838     0.007504
PT3824   PT        0.360208    0.394799    0.846416     0.004505
PT3825   PT        0.360691    0.428322    0.811777     0.004505
AU3826   AU        0.395807    0.394828    0.811756     0.007504
PT3827   PT        0.395082    0.427492    0.845498     0.004505
PT3828   PT        0.430866    0.395925    0.846539     0.004505
PT3829   PT        0.430054    0.426162    0.811467     0.004505
PT3830   PT        0.467403    0.395396    0.811164     0.004505
AU3831   AU        0.464819    0.429107    0.848782     0.007504
AU3832   AU        0.498102    0.395096    0.847787     0.007504
PT3833   PT        0.500161    0.426423    0.812969     0.004505
AU3834   AU        0.534406    0.391956    0.813532     0.007504
AU3835   AU        0.534183    0.427804    0.846777     0.007504
AU3836   AU        0.569919    0.394080    0.846843     0.007504
PT3837   PT        0.568026    0.426820    0.812405     0.004505
AU3838   AU        0.604881    0.393731    0.815179     0.007504
PT3839   PT        0.603501    0.428703    0.849066     0.004505
AU3840   AU        0.640442    0.397038    0.850853     0.007504
AU3841   AU        0.639948    0.428329    0.812129     0.007504
AU3842   AU        0.675289    0.395750    0.813410     0.007504
PT3843   PT        0.714057    0.427649    0.813057     0.004505
PT3844   PT        0.213064    0.494514    0.817627     0.004505
PT3845   PT        0.246896    0.458972    0.817073     0.004505
AU3846   AU        0.285749    0.461437    0.854861     0.007504
AU3847   AU        0.286956    0.490257    0.816528     0.007504
AU3848   AU        0.324236    0.460891    0.815425     0.007504
PT3849   PT        0.327065    0.493504    0.847219     0.004505
PT3850   PT        0.359156    0.459522    0.849947     0.004505
PT3851   PT        0.360056    0.492362    0.811498     0.004505
PT3852   PT        0.394894    0.461890    0.811184     0.004505
PT3853   PT        0.394969    0.491338    0.847081     0.004505
PT3854   PT        0.429991    0.460069    0.844041     0.004505
AU3855   AU        0.430505    0.493471    0.810686     0.007504
PT3856   PT        0.465991    0.460045    0.809420     0.004505
AU3857   AU        0.464462    0.492964    0.845015     0.007504
PT3858   PT        0.500481    0.462180    0.851300     0.004505
PT3859   PT        0.499680    0.492423    0.812665     0.004505
AU3860   AU        0.536166    0.460982    0.813312     0.007504
AU3861   AU        0.533667    0.494272    0.851420     0.007504
AU3862   AU        0.567181    0.461472    0.850079     0.007504
AU3863   AU        0.569896    0.492996    0.813339     0.007504
PT3864   PT        0.605417    0.459859    0.813858     0.004505
AU3865   AU        0.604965    0.491362    0.851268     0.007504
AU3866   AU        0.641749    0.463188    0.849042     0.007504
PT3867   PT        0.639713    0.492272    0.811796     0.004505
PT3868   PT        0.674427    0.457612    0.812518     0.004505
AU3869   AU        0.709561    0.493870    0.814655     0.007504
AU3870   AU        0.250289    0.526333    0.818137     0.007504
PT3871   PT        0.289058    0.524842    0.847973     0.004505
AU3872   AU        0.289317    0.557472    0.812420     0.007504
PT3873   PT        0.325275    0.525268    0.810756     0.004505
AU3874   AU        0.289377    0.588936    0.848821     0.007504
AU3875   AU        0.327758    0.558571    0.849289     0.007504
AU3876   AU        0.360951    0.558883    0.812503     0.007504
PT3877   PT        0.394980    0.524460    0.811725     0.004505
AU3878   AU        0.395641    0.559611    0.850260     0.007504
AU3879   AU        0.429202    0.524843    0.844927     0.007504
AU3880   AU        0.430156    0.558004    0.812160     0.007504
PT3881   PT        0.465092    0.526533    0.812803     0.004505
AU3882   AU        0.464738    0.559318    0.846198     0.007504
PT3883   PT        0.500220    0.525752    0.845759     0.004505
PT3884   PT        0.499258    0.557861    0.809762     0.004505
AU3885   AU        0.534223    0.524075    0.812009     0.007504
AU3886   AU        0.535290    0.559943    0.845497     0.007504
AU3887   AU        0.568783    0.527457    0.847538     0.007504
PT3888   PT        0.570192    0.556781    0.809476     0.004505
AU3889   AU        0.606839    0.524611    0.812041     0.007504
PT3890   PT        0.605905    0.557079    0.846773     0.004505
AU3891   AU        0.639704    0.523442    0.849142     0.007504
AU3892   AU        0.642069    0.559091    0.815717     0.007504
PT3893   PT        0.674412    0.525411    0.813235     0.004505
AU3894   AU        0.291861    0.626100    0.816121     0.007504
AU3895   AU        0.324438    0.591474    0.812684     0.007504
AU3896   AU        0.359900    0.593769    0.847151     0.007504
AU3897   AU        0.360158    0.623380    0.811639     0.007504
AU3898   AU        0.396627    0.589482    0.810286     0.007504
PT3899   PT        0.395677    0.623579    0.845265     0.004505
AU3900   AU        0.429992    0.591387    0.845870     0.007504
AU3901   AU        0.432107    0.624275    0.810860     0.007504
AU3902   AU        0.466006    0.589806    0.810722     0.007504
PT3903   PT        0.465205    0.623049    0.844352     0.004505
AU3904   AU        0.501358    0.590878    0.849276     0.007504
AU3905   AU        0.500034    0.624051    0.810950     0.007504
AU3906   AU        0.533639    0.591494    0.811244     0.007504
PT3907   PT        0.536642    0.623420    0.851373     0.004505
PT3908   PT        0.570415    0.590647    0.844807     0.004505
PT3909   PT        0.569331    0.623061    0.810039     0.004505
AU3910   AU        0.604492    0.589677    0.811207     0.007504
AU3911   AU        0.637867    0.625689    0.815127     0.007504
AU3912   AU        0.395037    0.656885    0.811038     0.007504
AU3913   AU        0.429484    0.654930    0.852967     0.007504
AU3914   AU        0.464391    0.659263    0.812953     0.007504
AU3915   AU        0.499575    0.692142    0.812436     0.007504
AU3916   AU        0.610372    0.638642    0.919107     0.007504
AU3917   AU        0.426610    0.393043    0.925174     0.007504
PT3918   PT        0.461434    0.398102    0.885587     0.004505
PT3919   PT        0.501490    0.425550    0.888022     0.004505
PT3920   PT        0.391689    0.463634    0.888440     0.004505
PT3921   PT        0.429872    0.494246    0.880286     0.004505
PT3922   PT        0.465223    0.460980    0.885968     0.004505
AU3923   AU        0.502241    0.492896    0.889637     0.007504
PT3924   PT        0.534613    0.458500    0.885634     0.004505
AU3925   AU        0.465890    0.523918    0.879967     0.007504
