data_00001
_audit_creation_method   'DISCUS'

_data_chemical_name_common 'Cu.cell Pearson1985'

_cell_length_a             54.2220
_cell_length_b             57.8368
_cell_length_c             57.8368
_cell_angle_alpha     90.0000
_cell_angle_beta      90.0000
_cell_angle_gamma     90.0000

_symmetry_space_group_name_H-M   'P1              '

loop_
_atom_site_label
_atom_site_symbol
_atom_site_fract_x
_atom_site_fract_y
_atom_site_fract_z
_atom_site_u_iso_or_equiv
NI1   NI        0.394334    0.356327    0.024483     0.004307
NI2   NI        0.429782    0.325829    0.028746     0.004307
NI3   NI        0.469639    0.358280    0.020287     0.004307
NI4   NI        0.502062    0.328924    0.022163     0.004307
NI5   NI        0.539006    0.361017    0.019727     0.004307
NI6   NI        0.340215    0.426977    0.009364     0.004307
NI7   NI        0.360906    0.389637    0.027326     0.004307
CU8   CU        0.403351    0.427122    0.016032     0.006663
NI9   NI        0.438770    0.394033    0.019389     0.004307
CU10   CU        0.471346    0.425605    0.020656     0.006663
NI11   NI        0.502863    0.391307    0.019415     0.004307
NI12   NI        0.536157    0.424857    0.019444     0.004307
NI13   NI        0.570008    0.393552    0.018786     0.004307
NI14   NI        0.612870    0.423731    0.023997     0.004307
CU15   CU        0.323024    0.495081    0.022548     0.006663
NI16   NI        0.371926    0.459291    0.014475     0.004307
NI17   NI        0.403504    0.491104    0.020309     0.004307
NI18   NI        0.436073    0.457782    0.020209     0.004307
NI19   NI        0.467099    0.491859    0.020779     0.004307
NI20   NI        0.501759    0.457033    0.018654     0.004307
NI21   NI        0.534675    0.493735    0.019303     0.004307
NI22   NI        0.564612    0.459796    0.017961     0.004307
NI23   NI        0.608626    0.458132    0.000625     0.004307
NI24   NI        0.359345    0.525414    0.022673     0.004307
NI25   NI        0.398878    0.556821    0.022131     0.004307
NI26   NI        0.432208    0.525858    0.022132     0.004307
NI27   NI        0.467524    0.558153    0.021459     0.004307
NI28   NI        0.502996    0.524906    0.021820     0.004307
NI29   NI        0.537761    0.556153    0.020587     0.004307
NI30   NI        0.568091    0.527969    0.021273     0.004307
NI31   NI        0.434364    0.587287    0.023598     0.004307
NI32   NI        0.505988    0.591449    0.022857     0.004307
NI33   NI        0.328460    0.227488    0.084198     0.004307
NI34   NI        0.398004    0.227608    0.079294     0.004307
NI35   NI        0.433001    0.195102    0.078820     0.004307
NI36   NI        0.469451    0.227498    0.080229     0.004307
NI37   NI        0.506490    0.196026    0.083200     0.004307
CU38   CU        0.536487    0.225969    0.083840     0.006663
NI39   NI        0.607495    0.230483    0.083627     0.004307
CU40   CU        0.256355    0.293226    0.083648     0.006663
NI41   NI        0.295789    0.259711    0.082031     0.004307
NI42   NI        0.325448    0.291507    0.082355     0.004307
NI43   NI        0.362570    0.258166    0.078050     0.004307
NI44   NI        0.360431    0.291136    0.050814     0.004307
NI45   NI        0.396555    0.261373    0.050197     0.004307
CU46   CU        0.393204    0.290536    0.079345     0.006663
NI47   NI        0.431494    0.258162    0.079918     0.004307
NI48   NI        0.431419    0.287322    0.050262     0.004307
CU49   CU        0.467091    0.260520    0.052509     0.006663
NI50   NI        0.467844    0.292707    0.078719     0.004307
NI51   NI        0.501500    0.261339    0.081832     0.004307
NI52   NI        0.500513    0.292845    0.051556     0.004307
NI53   NI        0.539175    0.261093    0.051798     0.004307
CU54   CU        0.537679    0.293422    0.078194     0.006663
CU55   CU        0.573938    0.259852    0.083479     0.006663
NI56   NI        0.571782    0.291223    0.050715     0.004307
NI57   NI        0.608824    0.294306    0.081482     0.004307
NI58   NI        0.644317    0.260647    0.082662     0.004307
CU59   CU        0.676322    0.292091    0.085276     0.006663
NI60   NI        0.219236    0.324260    0.086340     0.004307
NI61   NI        0.256315    0.358491    0.081560     0.004307
NI62   NI        0.291368    0.324988    0.083236     0.004307
NI63   NI        0.290618    0.356541    0.053925     0.004307
NI64   NI        0.325445    0.324091    0.053590     0.004307
NI65   NI        0.325284    0.355951    0.080582     0.004307
NI66   NI        0.359593    0.323232    0.081749     0.004307
NI67   NI        0.359767    0.355590    0.052763     0.004307
NI68   NI        0.393629    0.322105    0.051980     0.004307
NI69   NI        0.398099    0.362543    0.069845     0.004307
NI70   NI        0.433385    0.325653    0.073947     0.004307
CU71   CU        0.435759    0.363648    0.047210     0.006663
NI72   NI        0.469570    0.326971    0.051926     0.004307
NI73   NI        0.468435    0.359465    0.078258     0.004307
NI74   NI        0.500778    0.325549    0.081160     0.004307
NI75   NI        0.504719    0.360186    0.047957     0.004307
NI76   NI        0.538130    0.326844    0.050127     0.004307
CU77   CU        0.540278    0.356696    0.079433     0.006663
NI78   NI        0.574403    0.324827    0.079420     0.004307
NI79   NI        0.573440    0.357046    0.050215     0.004307
NI80   NI        0.607998    0.324693    0.049331     0.004307
CU81   CU        0.607645    0.356106    0.079607     0.006663
NI82   NI        0.643812    0.323451    0.085548     0.004307
NI83   NI        0.645735    0.357358    0.051470     0.004307
CU84   CU        0.678266    0.356996    0.082883     0.006663
NI85   NI        0.712750    0.326500    0.083830     0.004307
NI86   NI        0.192493    0.423688    0.083318     0.004307
CU87   CU        0.222332    0.388950    0.082766     0.006663
NI88   NI        0.254312    0.391276    0.053989     0.004307
NI89   NI        0.257265    0.423112    0.082906     0.004307
NI90   NI        0.288514    0.388708    0.081565     0.004307
NI91   NI        0.288589    0.419946    0.052717     0.004307
NI92   NI        0.323417    0.387757    0.051854     0.004307
NI93   NI        0.322935    0.416295    0.081239     0.004307
NI94   NI        0.366122    0.396731    0.071112     0.004307
NI95   NI        0.368004    0.428683    0.042650     0.004307
NI96   NI        0.401965    0.394386    0.044153     0.004307
CU97   CU        0.397034    0.427146    0.075301     0.006663
NI98   NI        0.433555    0.392602    0.075980     0.004307
CU99   CU        0.435153    0.424989    0.049418     0.006663
NI100   NI        0.469221    0.392216    0.048980     0.004307
CU101   CU        0.466781    0.423828    0.077886     0.006663
NI102   NI        0.501869    0.390615    0.075571     0.004307
NI103   NI        0.503633    0.425170    0.050440     0.004307
NI104   NI        0.536183    0.393627    0.047715     0.004307
CU105   CU        0.537924    0.425634    0.076606     0.006663
NI106   NI        0.574928    0.390437    0.075927     0.004307
CU107   CU        0.571195    0.427616    0.047456     0.006663
NI108   NI        0.617089    0.389862    0.053770     0.004307
NI109   NI        0.618178    0.420755    0.083226     0.004307
NI110   NI        0.648653    0.389103    0.082313     0.004307
NI111   NI        0.650116    0.418579    0.053594     0.004307
NI112   NI        0.683496    0.387992    0.053794     0.004307
CU113   CU        0.685203    0.419042    0.081098     0.006663
CU114   CU        0.714165    0.389740    0.084586     0.006663
NI115   NI        0.749263    0.422868    0.082723     0.004307
NI116   NI        0.192132    0.491542    0.083030     0.004307
NI117   NI        0.224383    0.458315    0.081859     0.004307
NI118   NI        0.261384    0.455068    0.054280     0.004307
NI119   NI        0.258805    0.488979    0.082852     0.004307
NI120   NI        0.292209    0.456943    0.082242     0.004307
NI121   NI        0.290705    0.487832    0.052228     0.004307
NI122   NI        0.335228    0.458023    0.039936     0.004307
NI123   NI        0.333356    0.489908    0.071836     0.004307
NI124   NI        0.367162    0.460879    0.075916     0.004307
NI125   NI        0.365569    0.489770    0.042292     0.004307
NI126   NI        0.398552    0.457965    0.046797     0.004307
NI127   NI        0.398602    0.490644    0.078534     0.004307
NI128   NI        0.432542    0.457315    0.079074     0.004307
NI129   NI        0.433761    0.491487    0.050921     0.004307
NI130   NI        0.468686    0.457844    0.049119     0.004307
NI131   NI        0.467340    0.491044    0.078778     0.004307
NI132   NI        0.503259    0.456784    0.080137     0.004307
CU133   CU        0.502117    0.493612    0.049520     0.006663
NI134   NI        0.535628    0.460305    0.047651     0.004307
NI135   NI        0.536943    0.492390    0.078969     0.004307
CU136   CU        0.570996    0.458991    0.077043     0.006663
CU137   CU        0.568837    0.491367    0.048199     0.006663
NI138   NI        0.600035    0.460594    0.043663     0.004307
NI139   NI        0.614855    0.496977    0.088011     0.004307
NI140   NI        0.641963    0.459376    0.095491     0.004307
NI141   NI        0.631134    0.493125    0.047734     0.004307
NI142   NI        0.681963    0.451485    0.055589     0.004307
NI143   NI        0.682940    0.486122    0.081185     0.004307
NI144   NI        0.715710    0.453576    0.084191     0.004307
NI145   NI        0.746277    0.490616    0.084308     0.004307
NI146   NI        0.224534    0.521745    0.082917     0.004307
NI147   NI        0.257115    0.523470    0.051644     0.004307
NI148   NI        0.259040    0.554656    0.080811     0.004307
NI149   NI        0.292743    0.522547    0.081765     0.004307
NI150   NI        0.292920    0.554675    0.052397     0.004307
NI151   NI        0.327008    0.524514    0.052893     0.004307
CU152   CU        0.329226    0.557268    0.080871     0.006663
NI153   NI        0.364493    0.523000    0.080500     0.004307
CU154   CU        0.363146    0.558076    0.052100     0.006663
NI155   NI        0.398733    0.523762    0.051594     0.004307
NI156   NI        0.398221    0.557646    0.082051     0.004307
CU157   CU        0.433333    0.523276    0.079431     0.006663
NI158   NI        0.433445    0.555496    0.052366     0.004307
NI159   NI        0.468818    0.525704    0.048174     0.004307
CU160   CU        0.468671    0.555303    0.081632     0.006663
NI161   NI        0.504606    0.525145    0.079568     0.004307
NI162   NI        0.502310    0.558302    0.050462     0.004307
NI163   NI        0.537554    0.524167    0.050353     0.004307
NI164   NI        0.538767    0.556665    0.079859     0.004307
NI165   NI        0.568735    0.524491    0.080188     0.004307
NI166   NI        0.571105    0.558777    0.050520     0.004307
NI167   NI        0.600257    0.521888    0.049946     0.004307
NI168   NI        0.604848    0.555356    0.077923     0.004307
CU169   CU        0.641979    0.527585    0.073785     0.006663
CU170   CU        0.643088    0.567600    0.058148     0.006663
NI171   NI        0.679007    0.519798    0.052296     0.004307
NI172   NI        0.679210    0.553374    0.080011     0.004307
NI173   NI        0.710811    0.522780    0.080756     0.004307
NI174   NI        0.221884    0.587880    0.082969     0.004307
NI175   NI        0.265187    0.651374    0.037847     0.004307
NI176   NI        0.294572    0.588302    0.081343     0.004307
NI177   NI        0.329600    0.590082    0.053162     0.004307
CU178   CU        0.330659    0.622056    0.082659     0.006663
NI179   NI        0.363477    0.590047    0.080879     0.004307
NI180   NI        0.364590    0.621342    0.051678     0.004307
NI181   NI        0.398277    0.590177    0.052076     0.004307
CU182   CU        0.398831    0.622943    0.081412     0.006663
NI183   NI        0.433093    0.589049    0.080452     0.004307
NI184   NI        0.432304    0.621316    0.051431     0.004307
NI185   NI        0.469390    0.586719    0.053442     0.004307
NI186   NI        0.467732    0.620992    0.081559     0.004307
NI187   NI        0.504782    0.588774    0.082120     0.004307
NI188   NI        0.502557    0.620938    0.052631     0.004307
NI189   NI        0.536806    0.589958    0.052098     0.004307
NI190   NI        0.539206    0.624390    0.081102     0.004307
NI191   NI        0.574132    0.592372    0.079981     0.004307
NI192   NI        0.569170    0.621834    0.051506     0.004307
NI193   NI        0.606164    0.592110    0.050339     0.004307
NI194   NI        0.604401    0.629225    0.079748     0.004307
CU195   CU        0.622654    0.592533    0.087106     0.006663
NI196   NI        0.665821    0.597271    0.081528     0.004307
NI197   NI        0.709579    0.586927    0.090564     0.004307
CU198   CU        0.295952    0.654206    0.086549     0.006663
NI199   NI        0.327501    0.685414    0.082745     0.004307
CU200   CU        0.364331    0.652438    0.083435     0.006663
NI201   NI        0.394702    0.652639    0.051997     0.004307
NI202   NI        0.400635    0.683657    0.081147     0.004307
CU203   CU        0.433075    0.653510    0.079004     0.006663
CU204   CU        0.466435    0.651126    0.050500     0.006663
NI205   NI        0.466033    0.683889    0.081824     0.004307
NI206   NI        0.502388    0.652209    0.082345     0.004307
NI207   NI        0.535781    0.656326    0.051131     0.004307
CU208   CU        0.537412    0.685022    0.083340     0.006663
NI209   NI        0.571611    0.659220    0.080882     0.004307
NI210   NI        0.606909    0.689385    0.081999     0.004307
NI211   NI        0.638597    0.660381    0.080838     0.004307
NI212   NI        0.435077    0.714360    0.082665     0.004307
NI213   NI        0.504309    0.717418    0.082428     0.004307
NI214   NI        0.327617    0.165191    0.142834     0.004307
NI215   NI        0.363432    0.134054    0.142920     0.004307
CU216   CU        0.364716    0.166114    0.110994     0.006663
NI217   NI        0.398769    0.162512    0.139085     0.004307
NI218   NI        0.435365    0.134016    0.144793     0.004307
NI219   NI        0.433924    0.164369    0.110442     0.004307
NI220   NI        0.466883    0.163586    0.141994     0.004307
NI221   NI        0.503284    0.133230    0.147039     0.004307
NI222   NI        0.500830    0.162985    0.112077     0.004307
NI223   NI        0.539759    0.163435    0.142640     0.004307
CU224   CU        0.573918    0.133878    0.141757     0.006663
NI225   NI        0.573589    0.165427    0.111764     0.004307
CU226   CU        0.605978    0.166226    0.142738     0.006663
NI227   NI        0.261836    0.231991    0.142604     0.004307
NI228   NI        0.293907    0.197707    0.142041     0.004307
NI229   NI        0.295531    0.230231    0.113743     0.004307
NI230   NI        0.327585    0.194019    0.112298     0.004307
NI231   NI        0.328086    0.226663    0.143583     0.004307
CU232   CU        0.360237    0.196683    0.141739     0.006663
NI233   NI        0.360689    0.227008    0.112230     0.004307
NI234   NI        0.399624    0.195345    0.109146     0.004307
NI235   NI        0.396065    0.226273    0.139846     0.004307
NI236   NI        0.434129    0.194473    0.140841     0.004307
CU237   CU        0.432557    0.227076    0.108406     0.006663
NI238   NI        0.469778    0.194960    0.110501     0.004307
NI239   NI        0.467099    0.228013    0.139430     0.004307
NI240   NI        0.502964    0.195247    0.142865     0.004307
NI241   NI        0.503838    0.227577    0.112522     0.004307
NI242   NI        0.539340    0.196997    0.113913     0.004307
CU243   CU        0.538517    0.227930    0.141655     0.006663
NI244   NI        0.573360    0.197392    0.142989     0.004307
NI245   NI        0.572057    0.228914    0.113049     0.004307
NI246   NI        0.606601    0.198788    0.112744     0.004307
NI247   NI        0.609578    0.227677    0.143542     0.004307
CU248   CU        0.640990    0.197814    0.143051     0.006663
NI249   NI        0.641387    0.231509    0.113584     0.004307
NI250   NI        0.675547    0.228957    0.144541     0.004307
CU251   CU        0.186839    0.292823    0.146136     0.006663
NI252   NI        0.225000    0.262516    0.143208     0.004307
NI253   NI        0.224038    0.293293    0.114595     0.004307
NI254   NI        0.259851    0.262808    0.111518     0.004307
NI255   NI        0.257953    0.293060    0.142572     0.004307
NI256   NI        0.294512    0.261965    0.141218     0.004307
NI257   NI        0.290553    0.292614    0.111874     0.004307
CU258   CU        0.329840    0.258939    0.112003     0.006663
NI259   NI        0.326183    0.291898    0.142058     0.004307
NI260   NI        0.362375    0.257909    0.140046     0.004307
CU261   CU        0.360785    0.292220    0.109840     0.006663
NI262   NI        0.394959    0.257347    0.110699     0.004307
NI263   NI        0.393960    0.289649    0.138745     0.004307
NI264   NI        0.430635    0.256603    0.138772     0.004307
NI265   NI        0.429715    0.292323    0.105453     0.004307
NI266   NI        0.465031    0.259981    0.108952     0.004307
NI267   NI        0.461739    0.294004    0.135763     0.004307
CU268   CU        0.500907    0.260885    0.140038     0.006663
NI269   NI        0.501836    0.293317    0.109666     0.004307
NI270   NI        0.539270    0.259396    0.110413     0.004307
CU271   CU        0.534225    0.298542    0.156237     0.006663
NI272   NI        0.574763    0.258388    0.142557     0.004307
NI273   NI        0.574612    0.291141    0.111057     0.004307
CU274   CU        0.608434    0.260941    0.113826     0.006663
NI275   NI        0.608039    0.293012    0.141726     0.004307
CU276   CU        0.642590    0.260207    0.144993     0.006663
CU277   CU        0.642501    0.291606    0.114025     0.006663
NI278   NI        0.675850    0.261449    0.116793     0.004307
NI279   NI        0.676494    0.294040    0.143699     0.004307
CU280   CU        0.713157    0.262749    0.142862     0.006663
NI281   NI        0.710654    0.295307    0.116637     0.004307
NI282   NI        0.744402    0.293507    0.144559     0.004307
NI283   NI        0.122877    0.358664    0.142824     0.004307
NI284   NI        0.153171    0.324235    0.144794     0.004307
NI285   NI        0.157894    0.357594    0.111367     0.004307
NI286   NI        0.187461    0.323946    0.117073     0.004307
NI287   NI        0.188001    0.358112    0.143187     0.004307
NI288   NI        0.223948    0.325019    0.143975     0.004307
NI289   NI        0.219670    0.357362    0.114381     0.004307
NI290   NI        0.255391    0.327069    0.112681     0.004307
NI291   NI        0.258183    0.358109    0.142034     0.004307
NI292   NI        0.291754    0.325129    0.142973     0.004307
NI293   NI        0.290483    0.357856    0.111953     0.004307
NI294   NI        0.326856    0.326190    0.110947     0.004307
NI295   NI        0.326229    0.357451    0.141131     0.004307
NI296   NI        0.359877    0.321724    0.140989     0.004307
NI297   NI        0.357301    0.354920    0.112091     0.004307
NI298   NI        0.395703    0.321361    0.109490     0.004307
CU299   CU        0.394314    0.356190    0.134211     0.006663
NI300   NI        0.429133    0.326674    0.134881     0.004307
NI301   NI        0.430977    0.357375    0.106178     0.004307
CU302   CU        0.463945    0.324963    0.104899     0.006663
NI303   NI        0.465228    0.355628    0.134598     0.004307
NI304   NI        0.501503    0.328274    0.154315     0.004307
NI305   NI        0.503434    0.361700    0.104315     0.004307
NI306   NI        0.541091    0.324902    0.108772     0.004307
NI307   NI        0.536265    0.360682    0.154128     0.004307
NI308   NI        0.573555    0.320902    0.140378     0.004307
NI309   NI        0.571838    0.356067    0.109320     0.004307
NI310   NI        0.608606    0.323478    0.111086     0.004307
NI311   NI        0.606007    0.369576    0.151037     0.004307
CU312   CU        0.646656    0.324450    0.143349     0.006663
NI313   NI        0.647536    0.353590    0.113790     0.004307
NI314   NI        0.678879    0.325958    0.113149     0.004307
NI315   NI        0.681012    0.356211    0.142645     0.004307
NI316   NI        0.711811    0.326212    0.144377     0.004307
CU317   CU        0.712784    0.359393    0.112344     0.006663
CU318   CU        0.743555    0.329068    0.113749     0.006663
NI319   NI        0.746822    0.359024    0.143021     0.004307
NI320   NI        0.780337    0.327551    0.145328     0.004307
NI321   NI        0.777370    0.358818    0.114707     0.004307
NI322   NI        0.811208    0.356809    0.144499     0.004307
NI323   NI        0.123285    0.423997    0.142520     0.004307
CU324   CU        0.154780    0.392114    0.141686     0.006663
CU325   CU        0.154706    0.425128    0.110641     0.006663
NI326   NI        0.187169    0.391754    0.112182     0.004307
NI327   NI        0.188593    0.425400    0.141101     0.004307
NI328   NI        0.221774    0.389298    0.141640     0.004307
NI329   NI        0.223679    0.422225    0.113215     0.004307
NI330   NI        0.255747    0.389732    0.112757     0.004307
NI331   NI        0.255819    0.423650    0.141461     0.004307
NI332   NI        0.290279    0.391555    0.142449     0.004307
NI333   NI        0.290963    0.422896    0.111637     0.004307
NI334   NI        0.322458    0.387278    0.111079     0.004307
NI335   NI        0.330066    0.421680    0.137132     0.004307
CU336   CU        0.360929    0.388923    0.136080     0.006663
NI337   NI        0.363440    0.423808    0.106758     0.004307
NI338   NI        0.397451    0.391263    0.105259     0.004307
NI339   NI        0.394999    0.423872    0.135854     0.004307
NI340   NI        0.428426    0.390882    0.134797     0.004307
NI341   NI        0.432725    0.425778    0.107159     0.004307
NI342   NI        0.465505    0.390578    0.105992     0.004307
NI343   NI        0.468488    0.424812    0.155315     0.004307
NI344   NI        0.503178    0.394171    0.156599     0.004307
NI345   NI        0.504774    0.420829    0.102680     0.004307
NI346   NI        0.537450    0.390459    0.104100     0.004307
NI347   NI        0.535427    0.424078    0.154662     0.004307
NI348   NI        0.569476    0.394205    0.154622     0.004307
NI349   NI        0.573089    0.424785    0.124483     0.004307
NI350   NI        0.614851    0.395685    0.115966     0.004307
NI351   NI        0.606032    0.428022    0.152424     0.004307
NI352   NI        0.640658    0.398166    0.152398     0.004307
CU353   CU        0.649487    0.421478    0.112303     0.006663
NI354   NI        0.681122    0.387468    0.112833     0.004307
NI355   NI        0.672447    0.428740    0.154691     0.004307
NI356   NI        0.717463    0.390480    0.143413     0.004307
NI357   NI        0.718683    0.425293    0.114227     0.004307
NI358   NI        0.747290    0.392980    0.113928     0.004307
NI359   NI        0.749162    0.424061    0.144664     0.004307
CU360   CU        0.782222    0.391559    0.143940     0.006663
NI361   NI        0.780513    0.424074    0.116036     0.004307
NI362   NI        0.814274    0.425829    0.146637     0.004307
NI363   NI        0.124656    0.491230    0.141685     0.004307
NI364   NI        0.155437    0.456852    0.140819     0.004307
CU365   CU        0.158998    0.491725    0.111038     0.006663
CU366   CU        0.190940    0.457590    0.113256     0.006663
CU367   CU        0.188906    0.488905    0.141780     0.006663
NI368   NI        0.222310    0.456832    0.143596     0.004307
NI369   NI        0.224765    0.490207    0.112191     0.004307
NI370   NI        0.256197    0.456166    0.112567     0.004307
CU371   CU        0.256297    0.491976    0.141979     0.006663
NI372   NI        0.290767    0.456814    0.141219     0.004307
CU373   CU        0.290706    0.489585    0.112868     0.006663
CU374   CU        0.324593    0.458470    0.113588     0.006663
CU375   CU        0.327023    0.493401    0.138146     0.006663
CU376   CU        0.363589    0.455595    0.135309     0.006663
CU377   CU        0.363701    0.489990    0.108296     0.006663
CU378   CU        0.398143    0.455942    0.108472     0.006663
CU379   CU        0.400189    0.491611    0.138565     0.006663
NI380   NI        0.434154    0.459569    0.138572     0.004307
NI381   NI        0.433657    0.489006    0.110496     0.004307
CU382   CU        0.467130    0.458571    0.106817     0.006663
CU383   CU        0.467876    0.489803    0.140128     0.006663
NI384   NI        0.501525    0.455315    0.154376     0.004307
NI385   NI        0.501108    0.489650    0.106861     0.004307
NI386   NI        0.537796    0.458771    0.104670     0.004307
CU387   CU        0.531308    0.488983    0.139169     0.006663
NI388   NI        0.572283    0.455811    0.152098     0.004307
NI389   NI        0.571423    0.490381    0.106080     0.004307
NI390   NI        0.605418    0.462284    0.123220     0.004307
CU391   CU        0.608548    0.490064    0.155685     0.006663
CU392   CU        0.640003    0.460014    0.156552     0.006663
NI393   NI        0.641850    0.490726    0.125423     0.004307
NI394   NI        0.682299    0.453182    0.111871     0.004307
NI395   NI        0.672038    0.490448    0.154583     0.004307
NI396   NI        0.719919    0.457055    0.141972     0.004307
NI397   NI        0.707578    0.495381    0.129764     0.004307
NI398   NI        0.752109    0.455815    0.111525     0.004307
CU399   CU        0.750922    0.488798    0.143129     0.006663
NI400   NI        0.781641    0.457526    0.144871     0.004307
NI401   NI        0.779382    0.491782    0.112573     0.004307
NI402   NI        0.811861    0.491344    0.145599     0.004307
CU403   CU        0.122204    0.555757    0.144663     0.006663
CU404   CU        0.157937    0.523779    0.143593     0.006663
NI405   NI        0.154222    0.554545    0.115214     0.004307
NI406   NI        0.191374    0.522274    0.111503     0.004307
CU407   CU        0.190062    0.555632    0.141380     0.006663
CU408   CU        0.222006    0.525316    0.143168     0.006663
CU409   CU        0.223557    0.556573    0.111547     0.006663
NI410   NI        0.257137    0.523680    0.112393     0.004307
NI411   NI        0.258666    0.557267    0.142361     0.004307
CU412   CU        0.290305    0.523772    0.139531     0.006663
CU413   CU        0.292318    0.557367    0.110835     0.006663
NI414   NI        0.328249    0.523608    0.110716     0.004307
NI415   NI        0.328425    0.555579    0.139787     0.004307
NI416   NI        0.365623    0.522201    0.138572     0.004307
NI417   NI        0.362852    0.556677    0.109404     0.004307
CU418   CU        0.400781    0.524231    0.111083     0.006663
CU419   CU        0.396626    0.555548    0.138748     0.006663
CU420   CU        0.434551    0.523892    0.137277     0.006663
NI421   NI        0.433534    0.556462    0.110690     0.004307
CU422   CU        0.468594    0.522694    0.108739     0.006663
NI423   NI        0.468273    0.555419    0.141037     0.004307
NI424   NI        0.498464    0.521492    0.141346     0.004307
NI425   NI        0.503215    0.555823    0.109828     0.004307
NI426   NI        0.536115    0.522604    0.110211     0.004307
NI427   NI        0.537327    0.561095    0.136199     0.004307
NI428   NI        0.575039    0.519618    0.154746     0.004307
CU429   CU        0.572403    0.558959    0.109520     0.006663
NI430   NI        0.608949    0.520138    0.124275     0.004307
CU431   CU        0.607268    0.549377    0.157032     0.006663
NI432   NI        0.639669    0.520380    0.157097     0.004307
NI433   NI        0.642653    0.551842    0.128896     0.004307
NI434   NI        0.674438    0.524348    0.129504     0.004307
NI435   NI        0.673311    0.550427    0.161189     0.004307
NI436   NI        0.712228    0.535093    0.150927     0.004307
NI437   NI        0.714449    0.553151    0.113256     0.004307
NI438   NI        0.748864    0.523360    0.113583     0.004307
NI439   NI        0.749734    0.555703    0.143384     0.004307
NI440   NI        0.781197    0.523639    0.143673     0.004307
CU441   CU        0.781332    0.555064    0.113490     0.006663
CU442   CU        0.813323    0.556888    0.145148     0.006663
NI443   NI        0.154973    0.589067    0.144509     0.004307
NI444   NI        0.190039    0.586193    0.113615     0.004307
NI445   NI        0.192568    0.619230    0.142647     0.004307
NI446   NI        0.224418    0.588771    0.141539     0.004307
NI447   NI        0.224292    0.621052    0.112481     0.004307
NI448   NI        0.259101    0.588580    0.111170     0.004307
NI449   NI        0.257432    0.619767    0.144059     0.004307
NI450   NI        0.291789    0.589639    0.142037     0.004307
NI451   NI        0.294945    0.621848    0.113356     0.004307
CU452   CU        0.326745    0.589373    0.111784     0.006663
NI453   NI        0.330319    0.622777    0.139835     0.004307
CU454   CU        0.362226    0.589969    0.140306     0.006663
NI455   NI        0.364319    0.622652    0.112366     0.004307
NI456   NI        0.399222    0.589943    0.112390     0.004307
NI457   NI        0.396132    0.621299    0.142607     0.004307
NI458   NI        0.433102    0.590230    0.142550     0.004307
NI459   NI        0.431797    0.622379    0.111263     0.004307
NI460   NI        0.465218    0.591944    0.111142     0.004307
NI461   NI        0.468181    0.622192    0.144928     0.004307
NI462   NI        0.501032    0.590050    0.142845     0.004307
NI463   NI        0.503601    0.623023    0.112412     0.004307
CU464   CU        0.539215    0.593457    0.110074     0.006663
NI465   NI        0.538810    0.625274    0.141769     0.004307
NI466   NI        0.570589    0.592333    0.139112     0.004307
CU467   CU        0.572339    0.624304    0.110373     0.006663
NI468   NI        0.609313    0.580309    0.125628     0.004307
NI469   NI        0.607316    0.624203    0.140217     0.004307
NI470   NI        0.641474    0.579314    0.159823     0.004307
NI471   NI        0.640051    0.626950    0.108490     0.004307
NI472   NI        0.654077    0.590112    0.122075     0.004307
NI473   NI        0.677987    0.623495    0.142929     0.004307
NI474   NI        0.713731    0.588670    0.141118     0.004307
NI475   NI        0.709627    0.625687    0.111026     0.004307
NI476   NI        0.747697    0.584961    0.114473     0.004307
NI477   NI        0.744813    0.618402    0.145490     0.004307
NI478   NI        0.780474    0.585576    0.146933     0.004307
NI479   NI        0.225917    0.654080    0.143407     0.004307
NI480   NI        0.260562    0.651382    0.115460     0.004307
NI481   NI        0.259256    0.685217    0.146026     0.004307
NI482   NI        0.292878    0.653563    0.143992     0.004307
NI483   NI        0.293088    0.687925    0.112436     0.004307
CU484   CU        0.328766    0.655041    0.112600     0.006663
NI485   NI        0.325882    0.685227    0.143676     0.004307
NI486   NI        0.360885    0.657013    0.142368     0.004307
CU487   CU        0.365238    0.685087    0.111367     0.006663
NI488   NI        0.396562    0.653395    0.111345     0.004307
CU489   CU        0.396123    0.685923    0.141388     0.006663
CU490   CU        0.434117    0.654410    0.142991     0.006663
CU491   CU        0.431208    0.683599    0.112500     0.006663
NI492   NI        0.467841    0.654855    0.111256     0.004307
NI493   NI        0.468797    0.689027    0.139543     0.004307
CU494   CU        0.505484    0.656668    0.141433     0.006663
NI495   NI        0.502492    0.687434    0.111348     0.004307
CU496   CU        0.538547    0.653845    0.110429     0.006663
NI497   NI        0.539383    0.687666    0.141364     0.004307
CU498   CU        0.574620    0.657284    0.140746     0.006663
NI499   NI        0.573353    0.687135    0.112371     0.004307
NI500   NI        0.605837    0.655785    0.109920     0.004307
NI501   NI        0.607976    0.685313    0.140824     0.004307
NI502   NI        0.641399    0.654197    0.142497     0.004307
NI503   NI        0.641360    0.687193    0.111220     0.004307
NI504   NI        0.675541    0.655980    0.113671     0.004307
NI505   NI        0.675012    0.686392    0.145164     0.004307
NI506   NI        0.711656    0.651737    0.145109     0.004307
CU507   CU        0.294630    0.717984    0.143870     0.006663
NI508   NI        0.329905    0.716768    0.111199     0.004307
NI509   NI        0.328759    0.749899    0.145257     0.004307
CU510   CU        0.364526    0.719536    0.140931     0.006663
NI511   NI        0.365847    0.750586    0.111989     0.004307
CU512   CU        0.400114    0.717685    0.110884     0.006663
CU513   CU        0.399278    0.751146    0.141650     0.006663
NI514   NI        0.432575    0.716736    0.142211     0.004307
NI515   NI        0.434803    0.748383    0.113571     0.004307
NI516   NI        0.468263    0.719436    0.111455     0.004307
NI517   NI        0.465704    0.750323    0.142265     0.004307
NI518   NI        0.505749    0.721519    0.141899     0.004307
NI519   NI        0.505656    0.748872    0.110612     0.004307
NI520   NI        0.537400    0.718523    0.112582     0.004307
NI521   NI        0.542846    0.752361    0.143299     0.004307
NI522   NI        0.572655    0.718112    0.141036     0.004307
NI523   NI        0.572388    0.751086    0.112801     0.004307
NI524   NI        0.608909    0.720618    0.114493     0.004307
CU525   CU        0.605139    0.751838    0.145060     0.006663
NI526   NI        0.640090    0.716786    0.145501     0.004307
NI527   NI        0.364867    0.782235    0.139929     0.004307
CU528   CU        0.431978    0.782605    0.143054     0.006663
NI529   NI        0.500237    0.780053    0.141753     0.004307
NI530   NI        0.572181    0.784976    0.147173     0.004307
NI531   NI        0.327118    0.097642    0.207991     0.004307
NI532   NI        0.396875    0.103671    0.205025     0.004307
CU533   CU        0.437090    0.102205    0.174154     0.006663
NI534   NI        0.466633    0.103066    0.207875     0.004307
NI535   NI        0.503816    0.101447    0.178470     0.004307
CU536   CU        0.538413    0.102088    0.207532     0.006663
NI537   NI        0.608153    0.102963    0.207395     0.004307
NI538   NI        0.257781    0.163975    0.208515     0.004307
NI539   NI        0.290696    0.160650    0.241044     0.004307
CU540   CU        0.295201    0.164698    0.173629     0.006663
NI541   NI        0.330622    0.133616    0.174580     0.004307
NI542   NI        0.329718    0.165180    0.206767     0.004307
NI543   NI        0.361865    0.130342    0.207479     0.004307
NI544   NI        0.361941    0.164595    0.170826     0.004307
NI545   NI        0.397037    0.131899    0.170913     0.004307
NI546   NI        0.394021    0.162078    0.202408     0.004307
NI547   NI        0.426791    0.132660    0.203550     0.004307
NI548   NI        0.429987    0.164187    0.172094     0.004307
NI549   NI        0.470391    0.133273    0.176551     0.004307
NI550   NI        0.466609    0.155777    0.213197     0.004307
NI551   NI        0.503658    0.133577    0.205948     0.004307
NI552   NI        0.506131    0.164156    0.174486     0.004307
NI553   NI        0.539946    0.132368    0.173226     0.004307
NI554   NI        0.539148    0.161069    0.204519     0.004307
NI555   NI        0.572518    0.133615    0.205667     0.004307
NI556   NI        0.573064    0.163589    0.171510     0.004307
NI557   NI        0.606246    0.135179    0.176427     0.004307
NI558   NI        0.607066    0.162737    0.205741     0.004307
NI559   NI        0.640798    0.134761    0.206643     0.004307
NI560   NI        0.642474    0.165116    0.176959     0.004307
CU561   CU        0.674586    0.165855    0.209795     0.006663
CU562   CU        0.190744    0.230484    0.207363     0.006663
CU563   CU        0.224204    0.198153    0.207142     0.006663
NI564   NI        0.224211    0.230449    0.175211     0.004307
NI565   NI        0.260571    0.197859    0.176395     0.004307
CU566   CU        0.256410    0.229573    0.206129     0.006663
NI567   NI        0.292732    0.194854    0.205631     0.004307
CU568   CU        0.292867    0.228392    0.172655     0.006663
CU569   CU        0.327868    0.194793    0.175639     0.006663
NI570   NI        0.327150    0.227947    0.204038     0.004307
NI571   NI        0.363973    0.195468    0.201901     0.004307
NI572   NI        0.361574    0.225340    0.172346     0.004307
NI573   NI        0.396645    0.193714    0.169784     0.004307
NI574   NI        0.398366    0.229912    0.217209     0.004307
NI575   NI        0.428080    0.196079    0.202261     0.004307
NI576   NI        0.428800    0.224826    0.168779     0.004307
CU577   CU        0.467149    0.196805    0.171862     0.006663
NI578   NI        0.469848    0.230605    0.216819     0.004307
NI579   NI        0.503860    0.202655    0.220622     0.004307
NI580   NI        0.501664    0.231373    0.187450     0.004307
CU581   CU        0.541303    0.195845    0.170942     0.006663
CU582   CU        0.534089    0.234111    0.217633     0.006663
NI583   NI        0.573915    0.194184    0.201853     0.004307
NI584   NI        0.578282    0.227020    0.172502     0.004307
CU585   CU        0.608829    0.194070    0.175015     0.006663
NI586   NI        0.610116    0.226843    0.205187     0.004307
NI587   NI        0.642274    0.194224    0.208595     0.004307
NI588   NI        0.643490    0.226352    0.176333     0.004307
NI589   NI        0.677045    0.197992    0.178288     0.004307
NI590   NI        0.678518    0.228270    0.207565     0.004307
NI591   NI        0.709572    0.196996    0.209843     0.004307
CU592   CU        0.711720    0.230237    0.176169     0.006663
CU593   CU        0.744458    0.230268    0.207624     0.006663
NI594   NI        0.125442    0.297611    0.208654     0.004307
NI595   NI        0.157726    0.262031    0.206222     0.004307
NI596   NI        0.157307    0.293776    0.176408     0.004307
NI597   NI        0.190763    0.262159    0.175324     0.004307
CU598   CU        0.188580    0.293289    0.206185     0.006663
NI599   NI        0.223000    0.259971    0.204904     0.004307
NI600   NI        0.222605    0.292236    0.175158     0.004307
NI601   NI        0.257079    0.258841    0.174701     0.004307
NI602   NI        0.256764    0.290859    0.202479     0.004307
CU603   CU        0.288410    0.259425    0.204530     0.006663
NI604   NI        0.290391    0.292142    0.171865     0.004307
CU605   CU        0.328257    0.259003    0.173515     0.006663
NI606   NI        0.322319    0.292880    0.200141     0.004307
NI607   NI        0.363187    0.254806    0.213086     0.004307
NI608   NI        0.362376    0.290337    0.169823     0.004307
NI609   NI        0.394958    0.260315    0.169321     0.004307
NI610   NI        0.396714    0.294637    0.217348     0.004307
NI611   NI        0.431324    0.264614    0.214944     0.004307
CU612   CU        0.428479    0.293141    0.163593     0.006663
NI613   NI        0.467701    0.263108    0.188090     0.004307
CU614   CU        0.467947    0.297423    0.217199     0.006663
CU615   CU        0.500031    0.264939    0.215945     0.006663
NI616   NI        0.500186    0.297135    0.186033     0.004307
NI617   NI        0.533798    0.267187    0.185416     0.004307
NI618   NI        0.534761    0.298393    0.215967     0.004307
NI619   NI        0.566921    0.265520    0.217064     0.004307
CU620   CU        0.574968    0.288933    0.174403     0.006663
NI621   NI        0.607935    0.258193    0.174492     0.004307
NI622   NI        0.607274    0.286778    0.204427     0.004307
CU623   CU        0.644395    0.258999    0.205255     0.006663
NI624   NI        0.645251    0.291253    0.173876     0.004307
NI625   NI        0.677410    0.259932    0.174714     0.004307
NI626   NI        0.677339    0.292907    0.206116     0.004307
NI627   NI        0.712521    0.260138    0.206268     0.004307
NI628   NI        0.712384    0.293697    0.174378     0.004307
NI629   NI        0.745418    0.261565    0.174338     0.004307
NI630   NI        0.746954    0.292340    0.206797     0.004307
NI631   NI        0.777129    0.261535    0.205992     0.004307
NI632   NI        0.776748    0.293131    0.175495     0.004307
NI633   NI        0.811120    0.294412    0.208382     0.004307
NI634   NI        0.091776    0.325966    0.210078     0.004307
NI635   NI        0.122139    0.325289    0.177837     0.004307
NI636   NI        0.121642    0.357854    0.206556     0.004307
CU637   CU        0.156672    0.329372    0.206824     0.006663
CU638   CU        0.154667    0.359010    0.175830     0.006663
NI639   NI        0.187959    0.326386    0.174287     0.004307
NI640   NI        0.187140    0.358443    0.206804     0.004307
CU641   CU        0.221556    0.323958    0.204982     0.006663
NI642   NI        0.222801    0.356420    0.172787     0.004307
NI643   NI        0.258365    0.327668    0.172696     0.004307
CU644   CU        0.256835    0.355926    0.205349     0.006663
NI645   NI        0.287767    0.324084    0.203363     0.004307
NI646   NI        0.292760    0.356717    0.171598     0.004307
CU647   CU        0.326671    0.325066    0.171400     0.006663
CU648   CU        0.332768    0.363342    0.217084     0.006663
CU649   CU        0.366200    0.328904    0.220099     0.006663
NI650   NI        0.361646    0.355987    0.168161     0.004307
NI651   NI        0.395049    0.323646    0.166010     0.004307
CU652   CU        0.399245    0.363490    0.220125     0.006663
CU653   CU        0.433069    0.331687    0.218723     0.006663
NI654   NI        0.434012    0.362025    0.187407     0.004307
CU655   CU        0.467532    0.332458    0.187676     0.006663
CU656   CU        0.466501    0.362622    0.217021     0.006663
NI657   NI        0.503403    0.329440    0.215879     0.004307
NI658   NI        0.500115    0.361860    0.185094     0.004307
NI659   NI        0.534117    0.330320    0.183958     0.004307
NI660   NI        0.537173    0.361809    0.215367     0.004307
NI661   NI        0.568010    0.332280    0.214791     0.004307
NI662   NI        0.574186    0.360975    0.182469     0.004307
NI663   NI        0.602260    0.328110    0.186408     0.004307
CU664   CU        0.603710    0.362579    0.218032     0.006663
NI665   NI        0.647907    0.330365    0.205635     0.004307
NI666   NI        0.636027    0.365971    0.184390     0.004307
NI667   NI        0.680289    0.323529    0.175878     0.004307
CU668   CU        0.671251    0.365170    0.216144     0.006663
CU669   CU        0.715105    0.322997    0.204989     0.006663
CU670   CU        0.715179    0.354990    0.173666     0.006663
CU671   CU        0.746722    0.323905    0.176157     0.006663
NI672   NI        0.749498    0.355686    0.207988     0.004307
NI673   NI        0.781150    0.325310    0.207884     0.004307
NI674   NI        0.778536    0.357312    0.175292     0.004307
NI675   NI        0.810560    0.323619    0.175590     0.004307
NI676   NI        0.812956    0.357201    0.207677     0.004307
NI677   NI        0.879001    0.328458    0.242312     0.004307
NI678   NI        0.088708    0.391931    0.208583     0.004307
NI679   NI        0.090626    0.423217    0.176889     0.004307
NI680   NI        0.124192    0.392238    0.173554     0.004307
NI681   NI        0.122771    0.423394    0.207330     0.004307
NI682   NI        0.153209    0.389988    0.207024     0.004307
CU683   CU        0.155731    0.424589    0.172767     0.006663
NI684   NI        0.188662    0.391991    0.170631     0.004307
NI685   NI        0.187869    0.420575    0.202946     0.004307
NI686   NI        0.219360    0.389694    0.203076     0.004307
NI687   NI        0.221952    0.421898    0.170899     0.004307
CU688   CU        0.255220    0.388557    0.171583     0.006663
NI689   NI        0.267173    0.427759    0.214368     0.004307
NI690   NI        0.300172    0.393602    0.216735     0.004307
NI691   NI        0.287132    0.420933    0.175039     0.004307
NI692   NI        0.328517    0.391664    0.167028     0.004307
NI693   NI        0.332485    0.425692    0.216991     0.004307
NI694   NI        0.364269    0.393619    0.216141     0.004307
NI695   NI        0.361925    0.421767    0.167228     0.004307
NI696   NI        0.401504    0.393973    0.188904     0.004307
CU697   CU        0.400970    0.427740    0.214161     0.006663
CU698   CU        0.433143    0.393806    0.217655     0.006663
CU699   CU        0.434496    0.423334    0.183774     0.006663
NI700   NI        0.466539    0.393260    0.186253     0.004307
CU701   CU        0.467610    0.423738    0.216920     0.006663
CU702   CU        0.500659    0.392747    0.215602     0.006663
CU703   CU        0.501215    0.425630    0.187433     0.006663
NI704   NI        0.536849    0.391545    0.182904     0.004307
CU705   CU        0.535009    0.424252    0.214985     0.006663
CU706   CU        0.571693    0.392357    0.213442     0.006663
NI707   NI        0.571776    0.425144    0.182510     0.004307
NI708   NI        0.605707    0.397485    0.183261     0.004307
NI709   NI        0.602009    0.424719    0.214759     0.004307
CU710   CU        0.635965    0.392610    0.215084     0.006663
CU711   CU        0.638921    0.426909    0.184267     0.006663
NI712   NI        0.669998    0.395861    0.184054     0.004307
NI713   NI        0.667617    0.424311    0.216823     0.004307
NI714   NI        0.705173    0.396122    0.216914     0.004307
NI715   NI        0.717693    0.423761    0.177553     0.004307
CU716   CU        0.750751    0.390767    0.175327     0.006663
NI717   NI        0.749838    0.421519    0.207464     0.004307
NI718   NI        0.783161    0.389398    0.207071     0.004307
CU719   CU        0.782332    0.424652    0.176564     0.006663
NI720   NI        0.813553    0.390619    0.176376     0.004307
CU721   CU        0.814486    0.424172    0.207381     0.006663
NI722   NI        0.844701    0.391626    0.207425     0.004307
NI723   NI        0.847225    0.421575    0.178540     0.004307
NI724   NI        0.092966    0.455326    0.208058     0.004307
NI725   NI        0.090896    0.487833    0.177241     0.004307
NI726   NI        0.124342    0.455650    0.173626     0.004307
NI727   NI        0.122496    0.489952    0.204462     0.004307
CU728   CU        0.154511    0.458691    0.206061     0.006663
NI729   NI        0.155871    0.488954    0.174154     0.004307
NI730   NI        0.188552    0.455906    0.172148     0.004307
NI731   NI        0.189364    0.495667    0.205232     0.004307
NI732   NI        0.234923    0.459456    0.216979     0.004307
NI733   NI        0.222563    0.492951    0.171556     0.004307
NI734   NI        0.260025    0.456507    0.173116     0.004307
CU735   CU        0.266054    0.487748    0.217892     0.006663
NI736   NI        0.300220    0.457367    0.216081     0.004307
NI737   NI        0.293665    0.491591    0.167250     0.004307
NI738   NI        0.335442    0.457940    0.186225     0.004307
CU739   CU        0.332147    0.487599    0.214124     0.006663
CU740   CU        0.367228    0.458832    0.216005     0.006663
CU741   CU        0.366590    0.489012    0.186253     0.006663
NI742   NI        0.399455    0.456908    0.186124     0.004307
CU743   CU        0.399339    0.488230    0.216553     0.006663
CU744   CU        0.433610    0.455632    0.217085     0.006663
NI745   NI        0.431147    0.489683    0.187166     0.004307
CU746   CU        0.460485    0.460366    0.175344     0.006663
NI747   NI        0.466552    0.486449    0.215971     0.004307
CU748   CU        0.503722    0.457212    0.216862     0.006663
NI749   NI        0.503397    0.495156    0.175074     0.004307
NI750   NI        0.538915    0.455575    0.183902     0.004307
CU751   CU        0.537734    0.488424    0.217191     0.006663
CU752   CU        0.568235    0.456402    0.216538     0.006663
CU753   CU        0.570367    0.488127    0.186965     0.006663
NI754   NI        0.605600    0.457622    0.184479     0.004307
NI755   NI        0.605046    0.485624    0.215294     0.004307
NI756   NI        0.636606    0.457353    0.214763     0.004307
CU757   CU        0.639446    0.489362    0.185737     0.006663
CU758   CU        0.671453    0.458623    0.185581     0.006663
NI759   NI        0.670281    0.487379    0.217977     0.004307
NI760   NI        0.716465    0.458749    0.203156     0.004307
CU761   CU        0.719031    0.490496    0.172148     0.006663
NI762   NI        0.748882    0.458461    0.175660     0.004307
CU763   CU        0.747903    0.488846    0.207669     0.006663
NI764   NI        0.781464    0.456335    0.206217     0.004307
NI765   NI        0.782125    0.490288    0.176874     0.004307
NI766   NI        0.812923    0.457105    0.176707     0.004307
NI767   NI        0.814485    0.488668    0.209618     0.004307
NI768   NI        0.847663    0.458338    0.209541     0.004307
NI769   NI        0.843692    0.490351    0.176633     0.004307
NI770   NI        0.089710    0.523358    0.207207     0.004307
CU771   CU        0.123466    0.519927    0.173479     0.006663
NI772   NI        0.122375    0.553368    0.203964     0.004307
NI773   NI        0.153551    0.525434    0.203544     0.004307
CU774   CU        0.155777    0.556906    0.172106     0.006663
NI775   NI        0.190362    0.524569    0.174731     0.004307
CU776   CU        0.185830    0.555815    0.204866     0.006663
NI777   NI        0.223827    0.525933    0.203315     0.004307
NI778   NI        0.221887    0.556022    0.172412     0.004307
NI779   NI        0.257978    0.524984    0.170810     0.004307
NI780   NI        0.254604    0.556083    0.205622     0.004307
NI781   NI        0.298678    0.518178    0.217576     0.004307
CU782   CU        0.291776    0.557225    0.171714     0.006663
CU783   CU        0.323294    0.524541    0.171460     0.006663
NI784   NI        0.328170    0.558490    0.202401     0.004307
NI785   NI        0.365107    0.522835    0.215339     0.004307
CU786   CU        0.362626    0.557240    0.169728     0.006663
CU787   CU        0.398260    0.523054    0.167222     0.006663
CU788   CU        0.401144    0.551696    0.217304     0.006663
CU789   CU        0.433617    0.518396    0.218494     0.006663
NI790   NI        0.431881    0.555363    0.169053     0.004307
NI791   NI        0.466918    0.523220    0.168287     0.004307
CU792   CU        0.467372    0.552433    0.219541     0.006663
CU793   CU        0.504922    0.520606    0.216465     0.006663
NI794   NI        0.504695    0.555057    0.165610     0.004307
CU795   CU        0.539327    0.521337    0.186606     0.006663
CU796   CU        0.535282    0.552103    0.216809     0.006663
CU797   CU        0.568771    0.520393    0.217060     0.006663
NI798   NI        0.570568    0.552208    0.185222     0.004307
NI799   NI        0.605414    0.519508    0.186129     0.004307
NI800   NI        0.601782    0.550658    0.217323     0.004307
NI801   NI        0.634741    0.519372    0.218064     0.004307
CU802   CU        0.638173    0.550425    0.190083     0.006663
NI803   NI        0.672022    0.519480    0.190632     0.004307
NI804   NI        0.668998    0.551784    0.223209     0.004307
NI805   NI        0.719554    0.520867    0.205914     0.004307
NI806   NI        0.701364    0.555276    0.192657     0.004307
NI807   NI        0.749160    0.522168    0.175181     0.004307
NI808   NI        0.746986    0.557042    0.205607     0.004307
NI809   NI        0.782980    0.520382    0.207300     0.004307
CU810   CU        0.780516    0.554089    0.176333     0.006663
CU811   CU        0.813730    0.524086    0.176026     0.006663
NI812   NI        0.813517    0.554036    0.207039     0.004307
NI813   NI        0.845797    0.523621    0.205850     0.004307
NI814   NI        0.090528    0.585208    0.207161     0.004307
NI815   NI        0.123594    0.588987    0.174609     0.004307
NI816   NI        0.123374    0.619425    0.208228     0.004307
NI817   NI        0.153327    0.587706    0.204492     0.004307
NI818   NI        0.154339    0.618940    0.176140     0.004307
NI819   NI        0.188649    0.586657    0.173106     0.004307
CU820   CU        0.191607    0.619770    0.205900     0.006663
NI821   NI        0.222399    0.589342    0.202547     0.004307
CU822   CU        0.224491    0.620689    0.173719     0.006663
CU823   CU        0.257585    0.587706    0.173150     0.006663
NI824   NI        0.257309    0.619791    0.203574     0.004307
NI825   NI        0.293814    0.589238    0.202298     0.004307
CU826   CU        0.290183    0.620674    0.173031     0.006663
CU827   CU        0.328279    0.590523    0.171610     0.006663
NI828   NI        0.325090    0.620944    0.203460     0.004307
NI829   NI        0.360651    0.592362    0.203337     0.004307
CU830   CU        0.361025    0.621523    0.173044     0.006663
NI831   NI        0.393854    0.589431    0.173361     0.004307
NI832   NI        0.400901    0.613611    0.211676     0.004307
NI833   NI        0.434578    0.583757    0.215214     0.004307
NI834   NI        0.432366    0.620550    0.171560     0.004307
NI835   NI        0.465363    0.587694    0.172634     0.004307
CU836   CU        0.468379    0.613305    0.210503     0.006663
NI837   NI        0.499374    0.581354    0.216850     0.004307
NI838   NI        0.499815    0.611980    0.183450     0.004307
NI839   NI        0.537894    0.592337    0.172513     0.004307
CU840   CU        0.533848    0.613829    0.215214     0.006663
NI841   NI        0.569588    0.581654    0.217738     0.004307
NI842   NI        0.572416    0.626332    0.169328     0.004307
CU843   CU        0.604443    0.579879    0.186657     0.006663
NI844   NI        0.602079    0.612861    0.219847     0.004307
CU845   CU        0.633323    0.582779    0.221742     0.006663
NI846   NI        0.644476    0.623386    0.173724     0.004307
NI847   NI        0.668923    0.582280    0.195598     0.004307
NI848   NI        0.678557    0.622705    0.204419     0.004307
NI849   NI        0.712731    0.591085    0.208915     0.004307
CU850   CU        0.712164    0.620253    0.174665     0.006663
CU851   CU        0.745084    0.588420    0.176651     0.006663
NI852   NI        0.744232    0.622405    0.206817     0.004307
NI853   NI        0.780068    0.588662    0.206650     0.004307
NI854   NI        0.776864    0.618946    0.176459     0.004307
NI855   NI        0.813096    0.585190    0.176398     0.004307
NI856   NI        0.813833    0.617283    0.207438     0.004307
CU857   CU        0.845941    0.585147    0.205976     0.006663
NI858   NI        0.156253    0.648880    0.206337     0.004307
NI859   NI        0.189505    0.649377    0.172073     0.004307
NI860   NI        0.187723    0.679742    0.202153     0.004307
NI861   NI        0.224076    0.651114    0.203697     0.004307
NI862   NI        0.225991    0.681381    0.174562     0.004307
NI863   NI        0.256759    0.653140    0.174449     0.004307
NI864   NI        0.259528    0.683810    0.204275     0.004307
CU865   CU        0.294402    0.652397    0.203832     0.006663
CU866   CU        0.292824    0.686861    0.174831     0.006663
CU867   CU        0.324309    0.654629    0.172727     0.006663
CU868   CU        0.340869    0.677468    0.212498     0.006663
NI869   NI        0.368231    0.644437    0.214193     0.004307
NI870   NI        0.359952    0.687965    0.173393     0.004307
NI871   NI        0.396379    0.654001    0.169827     0.004307
CU872   CU        0.402773    0.675580    0.211866     0.006663
NI873   NI        0.435286    0.644300    0.211360     0.004307
NI874   NI        0.438076    0.688509    0.173783     0.004307
CU875   CU        0.467347    0.644877    0.181561     0.006663
NI876   NI        0.466233    0.677361    0.213149     0.004307
CU877   CU        0.498883    0.643837    0.213086     0.006663
NI878   NI        0.506670    0.689786    0.169290     0.004307
NI879   NI        0.540565    0.657122    0.170908     0.004307
NI880   NI        0.539925    0.688489    0.200739     0.004307
NI881   NI        0.572891    0.659080    0.199182     0.004307
CU882   CU        0.574861    0.688459    0.170007     0.006663
NI883   NI        0.608060    0.651910    0.173466     0.004307
NI884   NI        0.596486    0.712385    0.218405     0.004307
NI885   NI        0.648135    0.653983    0.205105     0.004307
CU886   CU        0.641180    0.684358    0.174565     0.006663
NI887   NI        0.678142    0.654241    0.173661     0.004307
NI888   NI        0.677509    0.686157    0.206103     0.004307
NI889   NI        0.711830    0.655196    0.205737     0.004307
NI890   NI        0.707927    0.686083    0.173821     0.004307
NI891   NI        0.744147    0.650081    0.175006     0.004307
NI892   NI        0.744065    0.685104    0.208760     0.004307
NI893   NI        0.777805    0.652831    0.206882     0.004307
NI894   NI        0.225927    0.711916    0.207665     0.004307
NI895   NI        0.264288    0.717679    0.177386     0.004307
NI896   NI        0.262995    0.754092    0.207164     0.004307
NI897   NI        0.312620    0.707553    0.211577     0.004307
CU898   CU        0.297192    0.748979    0.175953     0.006663
NI899   NI        0.329975    0.717982    0.172158     0.004307
CU900   CU        0.331007    0.752790    0.205833     0.006663
NI901   NI        0.361071    0.718925    0.206497     0.004307
NI902   NI        0.362375    0.749654    0.173680     0.004307
CU903   CU        0.394966    0.719392    0.173964     0.006663
NI904   NI        0.393522    0.751847    0.205379     0.004307
NI905   NI        0.428478    0.710136    0.214647     0.004307
NI906   NI        0.429691    0.750315    0.171899     0.004307
NI907   NI        0.469445    0.720917    0.172514     0.004307
CU908   CU        0.468699    0.751987    0.203423     0.006663
NI909   NI        0.504143    0.722161    0.202158     0.004307
CU910   CU        0.502815    0.751131    0.172866     0.006663
NI911   NI        0.538902    0.720613    0.171640     0.004307
NI912   NI        0.537958    0.751225    0.205671     0.004307
CU913   CU        0.555086    0.717001    0.230522     0.006663
NI914   NI        0.571947    0.750332    0.176230     0.004307
CU915   CU        0.606793    0.720285    0.173621     0.006663
NI916   NI        0.607863    0.750739    0.207992     0.004307
NI917   NI        0.640126    0.719032    0.208826     0.004307
NI918   NI        0.640990    0.751206    0.176271     0.004307
NI919   NI        0.673229    0.718022    0.178611     0.004307
NI920   NI        0.674619    0.749006    0.208513     0.004307
NI921   NI        0.711728    0.716641    0.207877     0.004307
NI922   NI        0.298605    0.782848    0.206360     0.004307
NI923   NI        0.327406    0.782036    0.174630     0.004307
NI924   NI        0.329459    0.813395    0.209176     0.004307
NI925   NI        0.364321    0.782785    0.207057     0.004307
NI926   NI        0.397584    0.781103    0.173885     0.004307
NI927   NI        0.400712    0.811913    0.205084     0.004307
CU928   CU        0.432419    0.779103    0.204566     0.006663
NI929   NI        0.434416    0.810518    0.173625     0.004307
CU930   CU        0.467744    0.780208    0.173100     0.006663
NI931   NI        0.467613    0.808291    0.205145     0.004307
CU932   CU        0.503729    0.781309    0.207453     0.006663
NI933   NI        0.504916    0.809673    0.175088     0.004307
NI934   NI        0.538670    0.779614    0.176308     0.004307
NI935   NI        0.536742    0.811370    0.207127     0.004307
NI936   NI        0.574455    0.781027    0.207436     0.004307
NI937   NI        0.604302    0.779896    0.177043     0.004307
CU938   CU        0.608472    0.814091    0.212091     0.006663
NI939   NI        0.640496    0.781588    0.208596     0.004307
NI940   NI        0.261195    0.104005    0.270776     0.004307
NI941   NI        0.295717    0.101600    0.243896     0.004307
NI942   NI        0.328938    0.100671    0.272693     0.004307
NI943   NI        0.361164    0.070559    0.274026     0.004307
NI944   NI        0.359237    0.100477    0.241453     0.004307
NI945   NI        0.393570    0.075584    0.236190     0.004307
NI946   NI        0.393185    0.101859    0.270769     0.004307
CU947   CU        0.428170    0.074039    0.271011     0.006663
NI948   NI        0.430769    0.102939    0.239494     0.004307
NI949   NI        0.465788    0.073234    0.239773     0.004307
NI950   NI        0.467711    0.098401    0.274709     0.004307
CU951   CU        0.498210    0.068965    0.269288     0.006663
CU952   CU        0.504127    0.100823    0.236994     0.006663
NI953   NI        0.542981    0.072964    0.238757     0.004307
NI954   NI        0.537684    0.101780    0.267799     0.004307
CU955   CU        0.573422    0.073243    0.268702     0.006663
NI956   NI        0.574853    0.102377    0.238371     0.004307
NI957   NI        0.609221    0.101351    0.271366     0.004307
CU958   CU        0.643609    0.102750    0.238135     0.006663
NI959   NI        0.676273    0.104142    0.270740     0.004307
NI960   NI        0.188271    0.167490    0.274210     0.004307
NI961   NI        0.220094    0.132913    0.271262     0.004307
NI962   NI        0.221409    0.166962    0.240660     0.004307
NI963   NI        0.256633    0.133837    0.240107     0.004307
NI964   NI        0.255025    0.161054    0.273403     0.004307
NI965   NI        0.293641    0.134251    0.273277     0.004307
NI966   NI        0.294729    0.176994    0.279886     0.004307
NI967   NI        0.327669    0.130129    0.240065     0.004307
NI968   NI        0.331382    0.160048    0.268301     0.004307
NI969   NI        0.362696    0.130866    0.272936     0.004307
NI970   NI        0.362013    0.161180    0.236580     0.004307
NI971   NI        0.395206    0.128578    0.238957     0.004307
NI972   NI        0.395907    0.159242    0.271367     0.004307
CU973   CU        0.429847    0.127493    0.276417     0.006663
NI974   NI        0.431748    0.153355    0.244694     0.004307
NI975   NI        0.470051    0.127811    0.244621     0.004307
NI976   NI        0.474380    0.163130    0.270361     0.004307
NI977   NI        0.501730    0.125974    0.277495     0.004307
NI978   NI        0.507318    0.163274    0.236986     0.004307
NI979   NI        0.541236    0.134097    0.237687     0.004307
CU980   CU        0.541927    0.160520    0.270174     0.006663
NI981   NI        0.574659    0.131065    0.268989     0.004307
NI982   NI        0.574488    0.161503    0.238478     0.004307
NI983   NI        0.607904    0.131295    0.236474     0.004307
CU984   CU        0.607922    0.160050    0.269584     0.006663
NI985   NI        0.643717    0.132702    0.271139     0.004307
CU986   CU        0.642000    0.163592    0.240231     0.006663
NI987   NI        0.674929    0.133161    0.239624     0.004307
NI988   NI        0.677462    0.163897    0.269846     0.004307
NI989   NI        0.709852    0.133223    0.270772     0.004307
NI990   NI        0.709335    0.165679    0.240498     0.004307
NI991   NI        0.745224    0.164376    0.271105     0.004307
CU992   CU        0.124434    0.229704    0.272811     0.006663
NI993   NI        0.156453    0.198910    0.271302     0.004307
NI994   NI        0.156674    0.231043    0.239862     0.004307
NI995   NI        0.190073    0.198623    0.240842     0.004307
CU996   CU        0.189310    0.229408    0.271219     0.006663
NI997   NI        0.221801    0.196630    0.272784     0.004307
NI998   NI        0.224314    0.228377    0.235899     0.004307
NI999   NI        0.255307    0.195419    0.236914     0.004307
NI1000   NI        0.253968    0.231206    0.265639     0.004307
CU1001   CU        0.292020    0.221372    0.281300     0.006663
NI1002   NI        0.288403    0.227956    0.237782     0.004307
CU1003   CU        0.325520    0.206220    0.253738     0.006663
NI1004   NI        0.335159    0.234393    0.282446     0.004307
CU1005   CU        0.364332    0.188420    0.268510     0.006663
NI1006   NI        0.364388    0.230740    0.247917     0.004307
NI1007   NI        0.397585    0.190090    0.237101     0.004307
NI1008   NI        0.401288    0.234816    0.279235     0.004307
NI1009   NI        0.428406    0.193863    0.266646     0.004307
NI1010   NI        0.433733    0.233033    0.246219     0.004307
NI1011   NI        0.469264    0.200352    0.247255     0.004307
CU1012   CU        0.467709    0.235801    0.278277     0.006663
NI1013   NI        0.499022    0.200468    0.279985     0.004307
CU1014   CU        0.499662    0.233662    0.247351     0.006663
NI1015   NI        0.544209    0.194279    0.238294     0.004307
NI1016   NI        0.534418    0.234746    0.276438     0.004307
CU1017   CU        0.575250    0.192270    0.268580     0.006663
NI1018   NI        0.566939    0.232642    0.246195     0.004307
CU1019   CU        0.609884    0.191209    0.236801     0.006663
NI1020   NI        0.606800    0.221074    0.268080     0.004307
NI1021   NI        0.644135    0.193169    0.270028     0.004307
NI1022   NI        0.644643    0.226331    0.237572     0.004307
NI1023   NI        0.679737    0.197242    0.239455     0.004307
NI1024   NI        0.683133    0.227032    0.271093     0.004307
NI1025   NI        0.712782    0.194065    0.273924     0.004307
CU1026   CU        0.710656    0.228810    0.238163     0.006663
NI1027   NI        0.740774    0.197588    0.240395     0.004307
NI1028   NI        0.745942    0.225517    0.273102     0.004307
NI1029   NI        0.777433    0.196738    0.272861     0.004307
NI1030   NI        0.775641    0.227924    0.239622     0.004307
NI1031   NI        0.809810    0.229835    0.273049     0.004307
NI1032   NI        0.090726    0.260960    0.269512     0.004307
NI1033   NI        0.093196    0.294680    0.238531     0.004307
NI1034   NI        0.126371    0.260885    0.241568     0.004307
NI1035   NI        0.121890    0.292073    0.272468     0.004307
NI1036   NI        0.156266    0.260839    0.272392     0.004307
CU1037   CU        0.156828    0.293731    0.240283     0.006663
NI1038   NI        0.189223    0.260303    0.238211     0.004307
NI1039   NI        0.187164    0.290743    0.273687     0.004307
NI1040   NI        0.219941    0.261281    0.268697     0.004307
NI1041   NI        0.221135    0.292126    0.238333     0.004307
NI1042   NI        0.255674    0.262482    0.237531     0.004307
CU1043   CU        0.256992    0.293273    0.265472     0.006663
NI1044   NI        0.301563    0.263958    0.283118     0.004307
CU1045   CU        0.287919    0.294204    0.232335     0.006663
NI1046   NI        0.335795    0.262448    0.250863     0.004307
NI1047   NI        0.335059    0.297634    0.278740     0.004307
CU1048   CU        0.367754    0.265392    0.279606     0.006663
NI1049   NI        0.366053    0.296520    0.248053     0.004307
CU1050   CU        0.400255    0.263490    0.246153     0.006663
CU1051   CU        0.399576    0.294923    0.277244     0.006663
NI1052   NI        0.433952    0.264834    0.275276     0.004307
NI1053   NI        0.432840    0.298162    0.245853     0.004307
CU1054   CU        0.468111    0.265043    0.247836     0.006663
CU1055   CU        0.465268    0.298715    0.278826     0.006663
CU1056   CU        0.501755    0.264857    0.276969     0.006663
CU1057   CU        0.503618    0.298128    0.245836     0.006663
NI1058   NI        0.533998    0.266481    0.248945     0.004307
CU1059   CU        0.534590    0.298680    0.279260     0.006663
NI1060   NI        0.567801    0.264697    0.277508     0.004307
CU1061   CU        0.567929    0.296663    0.248006     0.006663
NI1062   NI        0.602135    0.267626    0.249259     0.004307
NI1063   NI        0.600687    0.299504    0.278806     0.004307
NI1064   NI        0.631907    0.263187    0.279127     0.004307
NI1065   NI        0.636271    0.300259    0.252562     0.004307
NI1066   NI        0.679869    0.260056    0.238565     0.004307
NI1067   NI        0.683603    0.292489    0.270275     0.004307
NI1068   NI        0.714743    0.257827    0.269941     0.004307
NI1069   NI        0.713245    0.290407    0.237304     0.004307
NI1070   NI        0.744695    0.258913    0.239591     0.004307
CU1071   CU        0.744405    0.290812    0.270298     0.006663
NI1072   NI        0.779055    0.260534    0.270662     0.004307
NI1073   NI        0.780409    0.292673    0.239627     0.004307
NI1074   NI        0.812453    0.261397    0.239335     0.004307
NI1075   NI        0.813004    0.294669    0.271538     0.004307
NI1076   NI        0.843719    0.258691    0.271536     0.004307
NI1077   NI        0.844246    0.291614    0.239961     0.004307
NI1078   NI        0.057974    0.358770    0.272542     0.004307
NI1079   NI        0.087512    0.327102    0.270864     0.004307
NI1080   NI        0.089700    0.359284    0.237820     0.004307
NI1081   NI        0.123758    0.327681    0.237980     0.004307
CU1082   CU        0.121502    0.357539    0.269074     0.006663
NI1083   NI        0.154977    0.325277    0.270910     0.004307
NI1084   NI        0.154250    0.358129    0.239040     0.004307
NI1085   NI        0.188894    0.324562    0.236703     0.004307
NI1086   NI        0.186244    0.357335    0.268089     0.004307
NI1087   NI        0.238697    0.331696    0.277583     0.004307
NI1088   NI        0.238566    0.362152    0.248642     0.004307
NI1089   NI        0.254730    0.323607    0.234837     0.004307
NI1090   NI        0.268906    0.363025    0.278548     0.004307
CU1091   CU        0.302091    0.332966    0.281172     0.006663
CU1092   CU        0.302398    0.364019    0.249018     0.006663
NI1093   NI        0.333526    0.332095    0.250445     0.004307
CU1094   CU        0.335092    0.362763    0.277875     0.006663
NI1095   NI        0.366886    0.328619    0.280157     0.004307
CU1096   CU        0.365658    0.365248    0.246651     0.006663
CU1097   CU        0.398169    0.328960    0.249846     0.006663
CU1098   CU        0.399272    0.362347    0.278634     0.006663
CU1099   CU        0.431838    0.330238    0.279631     0.006663
NI1100   NI        0.433346    0.360277    0.251105     0.004307
NI1101   NI        0.466317    0.329867    0.246955     0.004307
CU1102   CU        0.466270    0.364245    0.278284     0.006663
CU1103   CU        0.502121    0.328902    0.276212     0.006663
NI1104   NI        0.499701    0.361877    0.247508     0.004307
CU1105   CU        0.535685    0.327796    0.248210     0.006663
CU1106   CU        0.532693    0.361400    0.280270     0.006663
CU1107   CU        0.566032    0.333606    0.279612     0.006663
NI1108   NI        0.567018    0.362398    0.248065     0.004307
NI1109   NI        0.598425    0.332151    0.249496     0.004307
CU1110   CU        0.603461    0.363185    0.280545     0.006663
CU1111   CU        0.636270    0.332234    0.280617     0.006663
CU1112   CU        0.638808    0.363542    0.247491     0.006663
CU1113   CU        0.669216    0.329070    0.250384     0.006663
NI1114   NI        0.671239    0.360524    0.278791     0.004307
NI1115   NI        0.715854    0.323638    0.271619     0.004307
NI1116   NI        0.701589    0.362395    0.248120     0.004307
NI1117   NI        0.748485    0.324197    0.237563     0.004307
NI1118   NI        0.749083    0.353802    0.272316     0.004307
CU1119   CU        0.780877    0.324363    0.269580     0.006663
CU1120   CU        0.781324    0.357518    0.238088     0.006663
CU1121   CU        0.813493    0.325008    0.239679     0.006663
NI1122   NI        0.814676    0.355323    0.271267     0.004307
NI1123   NI        0.846299    0.324069    0.270519     0.004307
NI1124   NI        0.847766    0.359374    0.237751     0.004307
NI1125   NI        0.878210    0.359700    0.272679     0.004307
NI1126   NI        0.058154    0.391917    0.242642     0.004307
NI1127   NI        0.056499    0.425556    0.271770     0.004307
NI1128   NI        0.089007    0.391519    0.270227     0.004307
NI1129   NI        0.088105    0.425340    0.237852     0.004307
CU1130   CU        0.123093    0.390794    0.238010     0.006663
NI1131   NI        0.119267    0.423442    0.269042     0.004307
CU1132   CU        0.152403    0.390971    0.271428     0.006663
NI1133   NI        0.156302    0.423164    0.238631     0.004307
NI1134   NI        0.186465    0.390885    0.236260     0.004307
CU1135   CU        0.201275    0.425825    0.280549     0.006663
NI1136   NI        0.234623    0.397008    0.278642     0.004307
NI1137   NI        0.235093    0.425608    0.248316     0.004307
NI1138   NI        0.267842    0.395981    0.248531     0.004307
CU1139   CU        0.267645    0.426190    0.280078     0.006663
NI1140   NI        0.300170    0.394767    0.278291     0.004307
NI1141   NI        0.299155    0.425953    0.246821     0.004307
CU1142   CU        0.333366    0.395786    0.247072     0.006663
NI1143   NI        0.334685    0.426123    0.279778     0.004307
CU1144   CU        0.367111    0.394418    0.279204     0.006663
CU1145   CU        0.366496    0.426276    0.245054     0.006663
CU1146   CU        0.399170    0.395911    0.247961     0.006663
CU1147   CU        0.398593    0.425981    0.278389     0.006663
NI1148   NI        0.434004    0.394050    0.279874     0.004307
CU1149   CU        0.433875    0.425535    0.247722     0.006663
CU1150   CU        0.466741    0.391726    0.247645     0.006663
CU1151   CU        0.469416    0.423796    0.276949     0.006663
CU1152   CU        0.500741    0.394213    0.278350     0.006663
CU1153   CU        0.501896    0.424767    0.244670     0.006663
NI1154   NI        0.534503    0.392945    0.246436     0.004307
CU1155   CU        0.534705    0.424753    0.278214     0.006663
CU1156   CU        0.567529    0.391761    0.276858     0.006663
NI1157   NI        0.567624    0.422940    0.243988     0.004307
CU1158   CU        0.602974    0.395570    0.245706     0.006663
NI1159   NI        0.600664    0.423450    0.278855     0.004307
CU1160   CU        0.637766    0.393013    0.279566     0.006663
NI1161   NI        0.636001    0.422559    0.248498     0.004307
NI1162   NI        0.673348    0.393985    0.248784     0.004307
CU1163   CU        0.672900    0.425488    0.279719     0.006663
CU1164   CU        0.707245    0.393741    0.278344     0.006663
CU1165   CU        0.703114    0.425325    0.248460     0.006663
NI1166   NI        0.751180    0.389933    0.235812     0.004307
NI1167   NI        0.739770    0.425433    0.280134     0.004307
CU1168   CU        0.783388    0.387919    0.271829     0.006663
NI1169   NI        0.783341    0.423510    0.237595     0.004307
CU1170   CU        0.813875    0.390298    0.240338     0.006663
NI1171   NI        0.815941    0.423355    0.270137     0.004307
CU1172   CU        0.847393    0.390551    0.272337     0.006663
NI1173   NI        0.845978    0.421877    0.238844     0.004307
NI1174   NI        0.878757    0.391389    0.241049     0.004307
NI1175   NI        0.877592    0.425659    0.271085     0.004307
NI1176   NI        0.057111    0.457571    0.237108     0.004307
NI1177   NI        0.057644    0.490844    0.270563     0.004307
CU1178   CU        0.089905    0.456892    0.269708     0.006663
NI1179   NI        0.088420    0.492912    0.239757     0.004307
CU1180   CU        0.122676    0.458533    0.239502     0.006663
NI1181   NI        0.118568    0.491875    0.270742     0.004307
NI1182   NI        0.168654    0.458964    0.279750     0.004307
CU1183   CU        0.152329    0.493376    0.235242     0.006663
NI1184   NI        0.196613    0.455516    0.247321     0.004307
NI1185   NI        0.201864    0.486261    0.276877     0.004307
CU1186   CU        0.233771    0.455554    0.279940     0.006663
NI1187   NI        0.233982    0.489341    0.248571     0.004307
NI1188   NI        0.266871    0.457346    0.248771     0.004307
CU1189   CU        0.266448    0.487017    0.279641     0.006663
CU1190   CU        0.300614    0.455904    0.277321     0.006663
CU1191   CU        0.299201    0.487806    0.247308     0.006663
CU1192   CU        0.332790    0.457001    0.247296     0.006663
CU1193   CU        0.334861    0.488452    0.276825     0.006663
CU1194   CU        0.367247    0.457032    0.277995     0.006663
NI1195   NI        0.368351    0.490447    0.246280     0.004307
CU1196   CU        0.399801    0.457657    0.246186     0.006663
CU1197   CU        0.398275    0.490601    0.276862     0.006663
CU1198   CU        0.434627    0.455839    0.277475     0.006663
CU1199   CU        0.430847    0.486300    0.246552     0.006663
CU1200   CU        0.469095    0.457008    0.246980     0.006663
NI1201   NI        0.464833    0.486726    0.277234     0.004307
CU1202   CU        0.501785    0.454521    0.277438     0.006663
NI1203   NI        0.502234    0.486706    0.245485     0.004307
CU1204   CU        0.534343    0.455803    0.246006     0.006663
NI1205   NI        0.535117    0.486692    0.275989     0.004307
CU1206   CU        0.567230    0.456783    0.278045     0.006663
CU1207   CU        0.569358    0.489345    0.245443     0.006663
NI1208   NI        0.599320    0.455438    0.246279     0.004307
CU1209   CU        0.603226    0.487618    0.277402     0.006663
NI1210   NI        0.636800    0.454738    0.277582     0.004307
CU1211   CU        0.637617    0.488160    0.248680     0.006663
NI1212   NI        0.669630    0.456711    0.247210     0.004307
NI1213   NI        0.669468    0.485130    0.281932     0.004307
NI1214   NI        0.703884    0.455928    0.279422     0.004307
NI1215   NI        0.701659    0.487961    0.249889     0.004307
NI1216   NI        0.749825    0.453148    0.236433     0.004307
NI1217   NI        0.735220    0.487447    0.280743     0.004307
NI1218   NI        0.783320    0.453129    0.270039     0.004307
CU1219   CU        0.783044    0.490477    0.239518     0.006663
NI1220   NI        0.815551    0.455429    0.239526     0.004307
NI1221   NI        0.814944    0.492301    0.270747     0.004307
NI1222   NI        0.845744    0.458898    0.273625     0.004307
NI1223   NI        0.846614    0.489242    0.240588     0.004307
NI1224   NI        0.878599    0.456825    0.242616     0.004307
CU1225   CU        0.878609    0.490364    0.275075     0.006663
NI1226   NI        0.027091    0.488446    0.229952     0.004307
NI1227   NI        0.061405    0.558761    0.272882     0.004307
NI1228   NI        0.086034    0.524424    0.270715     0.004307
NI1229   NI        0.089181    0.555445    0.239450     0.004307
NI1230   NI        0.122461    0.524594    0.237879     0.004307
CU1231   CU        0.122456    0.559048    0.270228     0.006663
CU1232   CU        0.151280    0.525783    0.271254     0.006663
NI1233   NI        0.152503    0.557807    0.236641     0.004307
NI1234   NI        0.183080    0.525368    0.237059     0.004307
CU1235   CU        0.184045    0.557493    0.272087     0.006663
NI1236   NI        0.235316    0.520331    0.277018     0.004307
NI1237   NI        0.236098    0.551876    0.245388     0.004307
CU1238   CU        0.268004    0.519183    0.249243     0.006663
CU1239   CU        0.268226    0.549629    0.277940     0.006663
CU1240   CU        0.302842    0.519516    0.277475     0.006663
NI1241   NI        0.301675    0.550007    0.247910     0.004307
CU1242   CU        0.332860    0.518717    0.246605     0.006663
CU1243   CU        0.335531    0.550305    0.279923     0.006663
CU1244   CU        0.366153    0.519755    0.280162     0.006663
CU1245   CU        0.370190    0.550191    0.249637     0.006663
CU1246   CU        0.401629    0.520300    0.246309     0.006663
CU1247   CU        0.402273    0.550292    0.276826     0.006663
CU1248   CU        0.435970    0.521155    0.278772     0.006663
NI1249   NI        0.433446    0.551782    0.247088     0.004307
CU1250   CU        0.469913    0.520789    0.247477     0.006663
CU1251   CU        0.468648    0.551456    0.276902     0.006663
CU1252   CU        0.503190    0.518782    0.279166     0.006663
CU1253   CU        0.502874    0.549662    0.246455     0.006663
CU1254   CU        0.535515    0.517022    0.247669     0.006663
CU1255   CU        0.533686    0.551626    0.278569     0.006663
NI1256   NI        0.566045    0.518578    0.277457     0.004307
CU1257   CU        0.568112    0.551783    0.246384     0.006663
CU1258   CU        0.600830    0.520268    0.248894     0.006663
CU1259   CU        0.598724    0.550208    0.280585     0.006663
CU1260   CU        0.634166    0.519201    0.279096     0.006663
CU1261   CU        0.634090    0.550505    0.249118     0.006663
NI1262   NI        0.669393    0.518149    0.249896     0.004307
NI1263   NI        0.681547    0.557174    0.268705     0.004307
CU1264   CU        0.702168    0.518883    0.279398     0.006663
NI1265   NI        0.713571    0.556915    0.235103     0.004307
NI1266   NI        0.750134    0.525369    0.235940     0.004307
CU1267   CU        0.726360    0.553446    0.282689     0.006663
CU1268   CU        0.785693    0.523631    0.269713     0.006663
NI1269   NI        0.783035    0.557301    0.237400     0.004307
NI1270   NI        0.815696    0.522840    0.238239     0.004307
CU1271   CU        0.814439    0.556875    0.270233     0.006663
NI1272   NI        0.848599    0.522340    0.273135     0.004307
NI1273   NI        0.845704    0.555726    0.239894     0.004307
NI1274   NI        0.874126    0.523070    0.240110     0.004307
NI1275   NI        0.875251    0.555426    0.271330     0.004307
NI1276   NI        0.089980    0.590719    0.271841     0.004307
NI1277   NI        0.092042    0.622464    0.241157     0.004307
CU1278   CU        0.121398    0.589421    0.238506     0.006663
NI1279   NI        0.122730    0.623216    0.272600     0.004307
NI1280   NI        0.152811    0.589418    0.270859     0.004307
NI1281   NI        0.156109    0.620124    0.237432     0.004307
NI1282   NI        0.184682    0.587487    0.233975     0.004307
NI1283   NI        0.202875    0.600237    0.269347     0.004307
NI1284   NI        0.241618    0.584152    0.277656     0.004307
NI1285   NI        0.222185    0.620931    0.236611     0.004307
NI1286   NI        0.258498    0.589249    0.234515     0.004307
NI1287   NI        0.273058    0.614510    0.280416     0.004307
CU1288   CU        0.302843    0.582441    0.277613     0.006663
CU1289   CU        0.291878    0.621255    0.235395     0.006663
CU1290   CU        0.325616    0.588042    0.235155     0.006663
CU1291   CU        0.334214    0.614971    0.276932     0.006663
CU1292   CU        0.366895    0.583983    0.279059     0.006663
NI1293   NI        0.367396    0.615149    0.247705     0.004307
CU1294   CU        0.400252    0.583471    0.244906     0.006663
CU1295   CU        0.402127    0.614058    0.277475     0.006663
CU1296   CU        0.432671    0.583605    0.277220     0.006663
CU1297   CU        0.434882    0.615162    0.243914     0.006663
CU1298   CU        0.465683    0.581919    0.247531     0.006663
CU1299   CU        0.467200    0.614297    0.276252     0.006663
NI1300   NI        0.500709    0.583164    0.276780     0.004307
NI1301   NI        0.499940    0.612542    0.245166     0.004307
NI1302   NI        0.533090    0.582147    0.247748     0.004307
CU1303   CU        0.534216    0.616223    0.278159     0.006663
CU1304   CU        0.565875    0.580833    0.278999     0.006663
NI1305   NI        0.567274    0.612591    0.250718     0.004307
NI1306   NI        0.599743    0.580354    0.250877     0.004307
NI1307   NI        0.600108    0.614961    0.280823     0.004307
CU1308   CU        0.630749    0.582333    0.282989     0.006663
NI1309   NI        0.631726    0.610700    0.251574     0.004307
NI1310   NI        0.676535    0.592551    0.238741     0.004307
NI1311   NI        0.666474    0.611562    0.280542     0.004307
NI1312   NI        0.715167    0.589232    0.266013     0.004307
NI1313   NI        0.711305    0.623988    0.235882     0.004307
NI1314   NI        0.747850    0.587998    0.235813     0.004307
CU1315   CU        0.744891    0.620569    0.266511     0.006663
NI1316   NI        0.780498    0.590356    0.265905     0.004307
NI1317   NI        0.779280    0.622378    0.236199     0.004307
NI1318   NI        0.814771    0.588037    0.238702     0.004307
NI1319   NI        0.812288    0.623740    0.266726     0.004307
NI1320   NI        0.846075    0.587967    0.270771     0.004307
NI1321   NI        0.848145    0.617457    0.238768     0.004307
NI1322   NI        0.094842    0.656218    0.271744     0.004307
NI1323   NI        0.124038    0.652336    0.241446     0.004307
CU1324   CU        0.130547    0.687340    0.270358     0.006663
NI1325   NI        0.157772    0.651688    0.270299     0.004307
NI1326   NI        0.157559    0.680276    0.234744     0.004307
NI1327   NI        0.189983    0.651615    0.235670     0.004307
NI1328   NI        0.182333    0.688191    0.273611     0.004307
CU1329   CU        0.240355    0.647355    0.272645     0.006663
CU1330   CU        0.238925    0.688050    0.243603     0.006663
NI1331   NI        0.257573    0.651308    0.234437     0.004307
NI1332   NI        0.269578    0.678576    0.270049     0.004307
NI1333   NI        0.303876    0.645939    0.277424     0.004307
NI1334   NI        0.305912    0.677318    0.243363     0.004307
NI1335   NI        0.335711    0.644775    0.245297     0.004307
NI1336   NI        0.334821    0.675863    0.275673     0.004307
CU1337   CU        0.366631    0.644855    0.279064     0.006663
CU1338   CU        0.370396    0.676149    0.244785     0.006663
NI1339   NI        0.400293    0.644237    0.242848     0.004307
NI1340   NI        0.401536    0.674942    0.279721     0.004307
CU1341   CU        0.434877    0.644835    0.274374     0.006663
NI1342   NI        0.433879    0.674855    0.244741     0.004307
NI1343   NI        0.466769    0.644464    0.243084     0.004307
NI1344   NI        0.468942    0.672867    0.278532     0.004307
NI1345   NI        0.498489    0.643420    0.277319     0.004307
CU1346   CU        0.499356    0.672712    0.246521     0.006663
CU1347   CU        0.531038    0.643325    0.248933     0.006663
CU1348   CU        0.532085    0.674640    0.279015     0.006663
NI1349   NI        0.567275    0.645266    0.280108     0.004307
NI1350   NI        0.574533    0.681069    0.235995     0.004307
NI1351   NI        0.602299    0.646362    0.249412     0.004307
NI1352   NI        0.616703    0.687414    0.274980     0.004307
NI1353   NI        0.635622    0.644155    0.280165     0.004307
NI1354   NI        0.643576    0.670258    0.244348     0.004307
NI1355   NI        0.668262    0.634243    0.245724     0.004307
NI1356   NI        0.677071    0.671297    0.271411     0.004307
CU1357   CU        0.701713    0.633440    0.275086     0.006663
CU1358   CU        0.711849    0.687366    0.238928     0.006663
CU1359   CU        0.746777    0.653617    0.236676     0.006663
NI1360   NI        0.745168    0.688807    0.271079     0.004307
NI1361   NI        0.780718    0.652950    0.268229     0.004307
NI1362   NI        0.777018    0.686354    0.240580     0.004307
NI1363   NI        0.812870    0.654179    0.237131     0.004307
CU1364   CU        0.810965    0.685784    0.272332     0.006663
NI1365   NI        0.843396    0.656407    0.268748     0.004307
CU1366   CU        0.157173    0.722780    0.275916     0.006663
CU1367   CU        0.196150    0.699677    0.236308     0.006663
NI1368   NI        0.200845    0.726283    0.267801     0.004307
NI1369   NI        0.244839    0.716194    0.271578     0.004307
NI1370   NI        0.268483    0.746821    0.250839     0.004307
NI1371   NI        0.277501    0.707452    0.240264     0.004307
CU1372   CU        0.268578    0.751031    0.293361     0.006663
NI1373   NI        0.305066    0.708622    0.274422     0.004307
NI1374   NI        0.315195    0.740696    0.242062     0.004307
NI1375   NI        0.340417    0.707700    0.245287     0.004307
NI1376   NI        0.340159    0.735682    0.277367     0.004307
NI1377   NI        0.369767    0.704387    0.278919     0.004307
NI1378   NI        0.359891    0.749770    0.236842     0.004307
NI1379   NI        0.402641    0.703594    0.247328     0.004307
NI1380   NI        0.405396    0.733126    0.277679     0.004307
NI1381   NI        0.435280    0.703730    0.279978     0.004307
NI1382   NI        0.434831    0.752454    0.235764     0.004307
NI1383   NI        0.470028    0.722700    0.233233     0.004307
NI1384   NI        0.456351    0.741671    0.271235     0.004307
NI1385   NI        0.500969    0.726347    0.279006     0.004307
NI1386   NI        0.503880    0.751395    0.236241     0.004307
NI1387   NI        0.511996    0.712113    0.240389     0.004307
NI1388   NI        0.537966    0.755627    0.271782     0.004307
CU1389   CU        0.544090    0.713884    0.270393     0.006663
NI1390   NI        0.574258    0.752164    0.239244     0.004307
NI1391   NI        0.586429    0.714192    0.260618     0.004307
NI1392   NI        0.608718    0.753510    0.272299     0.004307
NI1393   NI        0.644759    0.722426    0.272493     0.004307
CU1394   CU        0.643616    0.752148    0.238817     0.006663
NI1395   NI        0.679479    0.718835    0.238360     0.004307
NI1396   NI        0.678493    0.751162    0.270818     0.004307
NI1397   NI        0.713208    0.720678    0.271577     0.004307
NI1398   NI        0.709637    0.749902    0.239477     0.004307
NI1399   NI        0.742077    0.720143    0.240428     0.004307
CU1400   CU        0.744839    0.750827    0.272970     0.006663
NI1401   NI        0.778453    0.719809    0.272271     0.004307
NI1402   NI        0.242946    0.778513    0.270828     0.004307
NI1403   NI        0.266730    0.786111    0.236565     0.004307
NI1404   NI        0.255526    0.816230    0.282546     0.004307
CU1405   CU        0.288345    0.786121    0.274482     0.006663
NI1406   NI        0.300265    0.812535    0.239258     0.004307
NI1407   NI        0.330363    0.781585    0.238025     0.004307
NI1408   NI        0.326148    0.810510    0.273256     0.004307
CU1409   CU        0.371852    0.764801    0.274999     0.006663
NI1410   NI        0.365487    0.814067    0.238143     0.004307
CU1411   CU        0.395850    0.783068    0.238380     0.006663
CU1412   CU        0.398558    0.814291    0.269698     0.006663
NI1413   NI        0.432109    0.780541    0.270957     0.004307
CU1414   CU        0.432946    0.809898    0.238491     0.006663
NI1415   NI        0.469380    0.780913    0.237471     0.004307
NI1416   NI        0.466943    0.811621    0.270040     0.004307
NI1417   NI        0.504586    0.784230    0.274643     0.004307
CU1418   CU        0.499775    0.810031    0.237622     0.006663
NI1419   NI        0.536820    0.781400    0.238572     0.004307
NI1420   NI        0.540101    0.812255    0.268716     0.004307
NI1421   NI        0.574865    0.782318    0.270886     0.004307
CU1422   CU        0.571772    0.814253    0.236467     0.006663
CU1423   CU        0.608279    0.781182    0.240413     0.006663
NI1424   NI        0.610256    0.812823    0.272162     0.004307
NI1425   NI        0.643550    0.781730    0.270257     0.004307
NI1426   NI        0.642507    0.812746    0.240147     0.004307
NI1427   NI        0.675213    0.780448    0.240398     0.004307
NI1428   NI        0.677345    0.810618    0.273606     0.004307
NI1429   NI        0.710105    0.782471    0.269094     0.004307
NI1430   NI        0.361079    0.843149    0.273178     0.004307
NI1431   NI        0.398944    0.842308    0.240867     0.004307
NI1432   NI        0.432381    0.842276    0.271857     0.004307
NI1433   NI        0.467508    0.838870    0.239655     0.004307
NI1434   NI        0.501346    0.842460    0.272806     0.004307
NI1435   NI        0.532404    0.840972    0.237874     0.004307
NI1436   NI        0.575799    0.840702    0.273073     0.004307
NI1437   NI        0.397407    0.042253    0.333377     0.004307
CU1438   CU        0.433055    0.041000    0.303678     0.006663
NI1439   NI        0.464156    0.040933    0.338913     0.004307
NI1440   NI        0.508386    0.048884    0.306197     0.004307
NI1441   NI        0.537879    0.040275    0.338704     0.004307
NI1442   NI        0.191141    0.103665    0.339131     0.004307
NI1443   NI        0.257758    0.101998    0.338385     0.004307
NI1444   NI        0.291684    0.075012    0.340002     0.004307
NI1445   NI        0.293482    0.104214    0.304814     0.004307
NI1446   NI        0.327019    0.072335    0.305806     0.004307
NI1447   NI        0.327471    0.100401    0.334920     0.004307
NI1448   NI        0.365739    0.073494    0.340039     0.004307
CU1449   CU        0.362116    0.100967    0.303177     0.006663
NI1450   NI        0.401461    0.072560    0.304816     0.004307
NI1451   NI        0.398610    0.101584    0.337002     0.004307
NI1452   NI        0.432409    0.070337    0.337146     0.004307
NI1453   NI        0.433504    0.100074    0.307358     0.004307
NI1454   NI        0.469047    0.069707    0.305988     0.004307
CU1455   CU        0.466053    0.100528    0.338476     0.006663
CU1456   CU        0.499654    0.070716    0.340718     0.006663
NI1457   NI        0.508269    0.091449    0.304030     0.004307
NI1458   NI        0.548884    0.065989    0.303224     0.004307
NI1459   NI        0.539722    0.096055    0.332164     0.004307
NI1460   NI        0.577126    0.069275    0.336497     0.004307
CU1461   CU        0.576194    0.099858    0.300800     0.006663
NI1462   NI        0.572885    0.032749    0.311351     0.004307
CU1463   CU        0.610388    0.100254    0.337088     0.006663
NI1464   NI        0.644469    0.072293    0.335501     0.004307
NI1465   NI        0.642709    0.102230    0.304240     0.004307
NI1466   NI        0.677438    0.104325    0.335583     0.004307
NI1467   NI        0.707054    0.101331    0.305114     0.004307
NI1468   NI        0.124254    0.164513    0.336385     0.004307
CU1469   CU        0.157358    0.133225    0.334725     0.006663
NI1470   NI        0.156511    0.168520    0.306318     0.004307
CU1471   CU        0.188460    0.135466    0.303028     0.006663
NI1472   NI        0.187522    0.165122    0.337726     0.004307
NI1473   NI        0.220911    0.131923    0.335571     0.004307
NI1474   NI        0.220926    0.162256    0.303107     0.004307
NI1475   NI        0.253865    0.131206    0.303449     0.004307
NI1476   NI        0.251536    0.160035    0.335656     0.004307
NI1477   NI        0.287174    0.132957    0.337954     0.004307
CU1478   CU        0.294112    0.174947    0.334311     0.006663
NI1479   NI        0.329165    0.131477    0.303754     0.004307
NI1480   NI        0.337593    0.173147    0.342224     0.004307
CU1481   CU        0.361028    0.132050    0.336691     0.006663
NI1482   NI        0.363125    0.161387    0.302834     0.004307
NI1483   NI        0.395687    0.129752    0.305152     0.004307
NI1484   NI        0.395477    0.159424    0.338834     0.004307
NI1485   NI        0.431393    0.130415    0.337599     0.004307
NI1486   NI        0.429037    0.162007    0.308352     0.004307
NI1487   NI        0.466480    0.132970    0.303194     0.004307
NI1488   NI        0.463343    0.164049    0.339452     0.004307
NI1489   NI        0.499528    0.138493    0.340882     0.004307
NI1490   NI        0.497652    0.169492    0.309767     0.004307
NI1491   NI        0.542994    0.128036    0.300501     0.004307
NI1492   NI        0.529150    0.169938    0.340613     0.004307
NI1493   NI        0.576987    0.131086    0.333964     0.004307
NI1494   NI        0.573977    0.160682    0.302125     0.004307
NI1495   NI        0.609942    0.132736    0.302053     0.004307
NI1496   NI        0.611928    0.162231    0.333440     0.004307
NI1497   NI        0.642343    0.132680    0.332934     0.004307
CU1498   CU        0.643694    0.162721    0.302666     0.006663
CU1499   CU        0.675542    0.132065    0.302867     0.006663
CU1500   CU        0.679195    0.163399    0.334814     0.006663
NI1501   NI        0.710910    0.131911    0.334891     0.004307
NI1502   NI        0.710235    0.162809    0.303001     0.004307
NI1503   NI        0.745301    0.134922    0.304182     0.004307
CU1504   CU        0.742336    0.162126    0.336893     0.006663
NI1505   NI        0.779582    0.137218    0.335921     0.004307
NI1506   NI        0.780189    0.164602    0.304953     0.004307
NI1507   NI        0.812524    0.165631    0.339402     0.004307
NI1508   NI        0.091307    0.229333    0.303746     0.004307
NI1509   NI        0.124086    0.197882    0.305427     0.004307
NI1510   NI        0.120983    0.229038    0.336330     0.004307
NI1511   NI        0.155336    0.195922    0.338926     0.004307
NI1512   NI        0.153530    0.228323    0.303685     0.004307
CU1513   CU        0.188928    0.196605    0.303797     0.006663
NI1514   NI        0.188222    0.227098    0.335494     0.004307
CU1515   CU        0.221445    0.192382    0.335676     0.006663
CU1516   CU        0.220848    0.229539    0.301659     0.006663
NI1517   NI        0.263603    0.204039    0.339680     0.004307
NI1518   NI        0.275686    0.242599    0.347007     0.004307
NI1519   NI        0.307095    0.210907    0.350240     0.004307
CU1520   CU        0.305844    0.237073    0.316772     0.006663
NI1521   NI        0.336023    0.207806    0.316826     0.004307
CU1522   CU        0.339677    0.240267    0.345056     0.006663
NI1523   NI        0.369800    0.208293    0.343896     0.004307
NI1524   NI        0.369048    0.237585    0.311721     0.004307
NI1525   NI        0.393479    0.192681    0.299326     0.004307
NI1526   NI        0.406213    0.238131    0.342642     0.004307
NI1527   NI        0.435617    0.200976    0.341480     0.004307
NI1528   NI        0.435730    0.234297    0.309393     0.004307
NI1529   NI        0.469154    0.204533    0.308685     0.004307
NI1530   NI        0.468724    0.234266    0.338675     0.004307
NI1531   NI        0.500532    0.204168    0.339161     0.004307
CU1532   CU        0.500907    0.233484    0.307382     0.006663
NI1533   NI        0.534238    0.203848    0.310930     0.004307
CU1534   CU        0.534994    0.234145    0.339580     0.006663
NI1535   NI        0.566205    0.203796    0.341905     0.004307
NI1536   NI        0.567197    0.235021    0.309779     0.004307
NI1537   NI        0.608612    0.191624    0.299640     0.004307
CU1538   CU        0.598333    0.234252    0.340454     0.006663
NI1539   NI        0.646778    0.193106    0.334858     0.004307
CU1540   CU        0.628292    0.232023    0.309239     0.006663
CU1541   CU        0.679292    0.193793    0.302948     0.006663
NI1542   NI        0.681067    0.226578    0.338563     0.004307
CU1543   CU        0.712317    0.195150    0.334231     0.006663
NI1544   NI        0.713419    0.225538    0.303873     0.004307
NI1545   NI        0.748221    0.195205    0.306892     0.004307
NI1546   NI        0.747032    0.226984    0.337252     0.004307
NI1547   NI        0.781425    0.194459    0.336792     0.004307
CU1548   CU        0.780403    0.228397    0.303092     0.006663
NI1549   NI        0.812152    0.194389    0.302900     0.004307
NI1550   NI        0.813087    0.229099    0.337428     0.004307
NI1551   NI        0.845652    0.229534    0.305021     0.004307
NI1552   NI        0.057880    0.292341    0.334367     0.004307
NI1553   NI        0.087990    0.258390    0.336672     0.004307
NI1554   NI        0.090429    0.294886    0.304644     0.004307
NI1555   NI        0.120928    0.261105    0.304243     0.004307
NI1556   NI        0.121479    0.291209    0.335111     0.004307
NI1557   NI        0.154249    0.260092    0.335867     0.004307
NI1558   NI        0.152924    0.292875    0.302632     0.004307
NI1559   NI        0.186247    0.259782    0.302690     0.004307
NI1560   NI        0.184106    0.291606    0.335614     0.004307
NI1561   NI        0.217635    0.258752    0.334562     0.004307
NI1562   NI        0.220543    0.292076    0.305956     0.004307
CU1563   CU        0.251431    0.261288    0.297457     0.006663
NI1564   NI        0.271649    0.302199    0.344259     0.004307
CU1565   CU        0.306297    0.271678    0.343610     0.006663
CU1566   CU        0.303866    0.299541    0.311704     0.006663
NI1567   NI        0.335311    0.269797    0.309685     0.004307
CU1568   CU        0.336832    0.299986    0.343617     0.006663
CU1569   CU        0.370798    0.270182    0.340913     0.006663
CU1570   CU        0.367543    0.298915    0.309331     0.006663
CU1571   CU        0.400639    0.267026    0.308726     0.006663
CU1572   CU        0.403662    0.298306    0.340073     0.006663
CU1573   CU        0.436379    0.267170    0.341899     0.006663
CU1574   CU        0.432472    0.297745    0.308416     0.006663
CU1575   CU        0.471008    0.265344    0.308511     0.006663
CU1576   CU        0.471052    0.294677    0.342286     0.006663
CU1577   CU        0.502692    0.263339    0.339264     0.006663
CU1578   CU        0.501165    0.296320    0.309280     0.006663
CU1579   CU        0.535862    0.266527    0.308616     0.006663
CU1580   CU        0.535920    0.296572    0.341002     0.006663
CU1581   CU        0.566167    0.265723    0.340728     0.006663
CU1582   CU        0.567409    0.297887    0.308903     0.006663
CU1583   CU        0.599608    0.268221    0.309926     0.006663
CU1584   CU        0.600411    0.298745    0.343472     0.006663
NI1585   NI        0.629837    0.265110    0.339683     0.004307
CU1586   CU        0.633811    0.302017    0.312738     0.006663
NI1587   NI        0.683489    0.258410    0.305090     0.004307
NI1588   NI        0.680228    0.289638    0.335715     0.004307
NI1589   NI        0.712809    0.259141    0.336474     0.004307
NI1590   NI        0.716244    0.290952    0.304025     0.004307
CU1591   CU        0.747482    0.258615    0.302540     0.006663
NI1592   NI        0.748979    0.290814    0.336875     0.004307
CU1593   CU        0.780789    0.259081    0.335547     0.006663
NI1594   NI        0.779267    0.291300    0.304051     0.004307
NI1595   NI        0.812381    0.260985    0.303635     0.004307
NI1596   NI        0.812174    0.290873    0.336074     0.004307
NI1597   NI        0.844262    0.260370    0.338746     0.004307
NI1598   NI        0.846406    0.290577    0.302877     0.004307
CU1599   CU        0.877707    0.290472    0.337625     0.006663
NI1600   NI        0.056840    0.325647    0.304512     0.004307
NI1601   NI        0.056963    0.361549    0.334711     0.004307
NI1602   NI        0.088607    0.325421    0.335686     0.004307
NI1603   NI        0.088059    0.359325    0.304849     0.004307
NI1604   NI        0.120359    0.324819    0.301381     0.004307
NI1605   NI        0.120019    0.357683    0.336124     0.004307
NI1606   NI        0.150451    0.325633    0.334106     0.004307
NI1607   NI        0.152179    0.356431    0.302137     0.004307
CU1608   CU        0.184735    0.323505    0.302748     0.006663
NI1609   NI        0.201112    0.365885    0.340371     0.004307
CU1610   CU        0.235783    0.335360    0.340643     0.006663
CU1611   CU        0.234398    0.363557    0.308628     0.006663
CU1612   CU        0.268383    0.333822    0.311932     0.006663
NI1613   NI        0.268579    0.365541    0.342173     0.004307
CU1614   CU        0.302182    0.331801    0.341228     0.006663
CU1615   CU        0.302817    0.364670    0.311846     0.006663
CU1616   CU        0.334631    0.331750    0.310251     0.006663
NI1617   NI        0.334674    0.361985    0.342712     0.004307
CU1618   CU        0.367644    0.332324    0.342917     0.006663
CU1619   CU        0.367238    0.362540    0.311677     0.006663
CU1620   CU        0.402489    0.330933    0.309449     0.006663
CU1621   CU        0.400097    0.361811    0.339789     0.006663
NI1622   NI        0.435387    0.329643    0.340887     0.004307
CU1623   CU        0.434296    0.362224    0.309171     0.006663
CU1624   CU        0.470052    0.328429    0.308968     0.006663
CU1625   CU        0.465382    0.361687    0.342624     0.006663
CU1626   CU        0.498532    0.328320    0.342355     0.006663
CU1627   CU        0.498984    0.360890    0.311132     0.006663
CU1628   CU        0.534204    0.329806    0.310438     0.006663
CU1629   CU        0.534897    0.361582    0.339271     0.006663
CU1630   CU        0.567476    0.329550    0.341725     0.006663
NI1631   NI        0.567901    0.362976    0.311152     0.004307
NI1632   NI        0.599636    0.331773    0.308908     0.004307
CU1633   CU        0.603105    0.363999    0.342384     0.006663
NI1634   NI        0.633365    0.332888    0.341669     0.004307
CU1635   CU        0.637896    0.363667    0.310948     0.006663
NI1636   NI        0.666911    0.331054    0.311055     0.004307
CU1637   CU        0.667294    0.364406    0.342148     0.006663
NI1638   NI        0.714200    0.321872    0.334817     0.004307
NI1639   NI        0.714954    0.356520    0.302316     0.004307
NI1640   NI        0.748462    0.324685    0.302637     0.004307
NI1641   NI        0.745073    0.353462    0.334500     0.004307
CU1642   CU        0.781008    0.322333    0.334975     0.006663
NI1643   NI        0.782011    0.355746    0.301844     0.004307
NI1644   NI        0.816467    0.324263    0.304157     0.004307
NI1645   NI        0.814734    0.356258    0.336105     0.004307
NI1646   NI        0.846966    0.325118    0.336317     0.004307
NI1647   NI        0.847392    0.358930    0.302637     0.004307
NI1648   NI        0.910257    0.359544    0.305220     0.004307
CU1649   CU        0.878594    0.361867    0.338097     0.006663
NI1650   NI        0.027657    0.391602    0.336800     0.004307
NI1651   NI        0.023524    0.389087    0.271229     0.004307
NI1652   NI        0.056684    0.389118    0.301882     0.004307
NI1653   NI        0.057382    0.424902    0.336589     0.004307
NI1654   NI        0.089262    0.393259    0.336889     0.004307
NI1655   NI        0.089029    0.424625    0.302540     0.004307
NI1656   NI        0.121080    0.389874    0.302021     0.004307
CU1657   CU        0.118205    0.425106    0.337015     0.006663
NI1658   NI        0.168913    0.395027    0.343545     0.004307
NI1659   NI        0.169241    0.428184    0.313105     0.004307
NI1660   NI        0.200793    0.394430    0.310337     0.004307
NI1661   NI        0.200226    0.425404    0.343058     0.004307
NI1662   NI        0.232352    0.394360    0.340630     0.004307
CU1663   CU        0.232405    0.425529    0.309856     0.006663
CU1664   CU        0.268130    0.393350    0.309132     0.006663
CU1665   CU        0.265646    0.424927    0.342913     0.006663
CU1666   CU        0.299225    0.394732    0.343491     0.006663
CU1667   CU        0.300879    0.424147    0.310853     0.006663
CU1668   CU        0.336222    0.394835    0.309553     0.006663
CU1669   CU        0.335268    0.424540    0.341946     0.006663
CU1670   CU        0.366983    0.393169    0.340533     0.006663
CU1671   CU        0.368703    0.425130    0.308181     0.006663
CU1672   CU        0.400646    0.393017    0.310808     0.006663
CU1673   CU        0.399433    0.426194    0.342236     0.006663
CU1674   CU        0.433977    0.394787    0.340493     0.006663
NI1675   NI        0.430231    0.427799    0.310106     0.004307
CU1676   CU        0.467514    0.393801    0.309521     0.006663
CU1677   CU        0.467220    0.425478    0.341045     0.006663
CU1678   CU        0.500032    0.392916    0.343346     0.006663
CU1679   CU        0.501038    0.424660    0.311502     0.006663
CU1680   CU        0.533957    0.394379    0.307715     0.006663
NI1681   NI        0.534446    0.425382    0.342415     0.004307
CU1682   CU        0.567761    0.394695    0.340997     0.006663
CU1683   CU        0.567600    0.424265    0.308640     0.006663
CU1684   CU        0.603895    0.394833    0.310297     0.006663
CU1685   CU        0.601485    0.426573    0.342927     0.006663
CU1686   CU        0.634635    0.394409    0.341708     0.006663
CU1687   CU        0.636233    0.424001    0.310742     0.006663
CU1688   CU        0.670492    0.394349    0.309789     0.006663
CU1689   CU        0.671363    0.423767    0.342394     0.006663
NI1690   NI        0.701877    0.392456    0.343193     0.004307
CU1691   CU        0.703599    0.423919    0.311061     0.006663
NI1692   NI        0.747516    0.387246    0.299027     0.004307
NI1693   NI        0.736206    0.426984    0.341535     0.004307
NI1694   NI        0.778546    0.385797    0.332681     0.004307
NI1695   NI        0.780895    0.421333    0.301799     0.004307
NI1696   NI        0.813629    0.389849    0.303004     0.004307
NI1697   NI        0.819108    0.428531    0.340827     0.004307
CU1698   CU        0.845411    0.389025    0.336068     0.006663
NI1699   NI        0.847354    0.422381    0.303859     0.004307
NI1700   NI        0.877513    0.391434    0.305031     0.004307
NI1701   NI        0.876768    0.424337    0.334855     0.004307
CU1702   CU        0.909250    0.393108    0.335553     0.006663
NI1703   NI        0.910280    0.426063    0.306976     0.004307
CU1704   CU        0.025996    0.458906    0.337896     0.006663
NI1705   NI        0.026466    0.490889    0.302975     0.004307
NI1706   NI        0.057201    0.458274    0.301057     0.004307
CU1707   CU        0.057580    0.489282    0.335697     0.006663
CU1708   CU        0.089331    0.456588    0.336405     0.006663
NI1709   NI        0.088030    0.492750    0.302636     0.004307
NI1710   NI        0.119639    0.456419    0.304136     0.004307
CU1711   CU        0.117862    0.491018    0.337081     0.006663
NI1712   NI        0.149048    0.459571    0.338506     0.004307
CU1713   CU        0.150922    0.492066    0.304978     0.006663
NI1714   NI        0.201818    0.458064    0.309236     0.004307
NI1715   NI        0.182707    0.490510    0.336538     0.004307
NI1716   NI        0.236578    0.456246    0.341270     0.004307
CU1717   CU        0.233890    0.488520    0.307852     0.006663
CU1718   CU        0.268327    0.456526    0.309461     0.006663
CU1719   CU        0.267890    0.486614    0.341031     0.006663
CU1720   CU        0.299645    0.455955    0.341451     0.006663
NI1721   NI        0.302366    0.486431    0.312193     0.004307
CU1722   CU        0.333611    0.456509    0.310229     0.006663
CU1723   CU        0.334894    0.488834    0.343997     0.006663
NI1724   NI        0.368251    0.457353    0.341178     0.004307
CU1725   CU        0.367058    0.486508    0.310045     0.006663
CU1726   CU        0.399963    0.459355    0.308972     0.006663
CU1727   CU        0.400450    0.487466    0.342755     0.006663
CU1728   CU        0.432546    0.458922    0.339274     0.006663
CU1729   CU        0.434899    0.488208    0.307333     0.006663
CU1730   CU        0.467218    0.455355    0.309226     0.006663
CU1731   CU        0.467496    0.491054    0.341036     0.006663
CU1732   CU        0.501254    0.458896    0.340460     0.006663
NI1733   NI        0.502095    0.487476    0.307741     0.004307
CU1734   CU        0.535264    0.456595    0.310122     0.006663
CU1735   CU        0.535144    0.486679    0.342459     0.006663
CU1736   CU        0.567947    0.456435    0.341061     0.006663
CU1737   CU        0.565397    0.489010    0.309424     0.006663
CU1738   CU        0.602369    0.454868    0.309587     0.006663
CU1739   CU        0.600864    0.488115    0.343445     0.006663
CU1740   CU        0.636634    0.454981    0.343050     0.006663
CU1741   CU        0.631907    0.485763    0.310638     0.006663
NI1742   NI        0.669524    0.453336    0.311080     0.004307
CU1743   CU        0.667887    0.487850    0.344435     0.006663
NI1744   NI        0.703959    0.457442    0.342290     0.004307
CU1745   CU        0.701253    0.487340    0.312010     0.006663
NI1746   NI        0.734631    0.457715    0.311881     0.004307
NI1747   NI        0.734967    0.489121    0.343906     0.004307
NI1748   NI        0.788310    0.462884    0.341026     0.004307
NI1749   NI        0.766261    0.487872    0.313295     0.004307
NI1750   NI        0.815338    0.456018    0.306784     0.004307
CU1751   CU        0.821738    0.490990    0.338935     0.006663
NI1752   NI        0.850174    0.456933    0.338004     0.004307
NI1753   NI        0.847748    0.490904    0.305199     0.004307
NI1754   NI        0.877143    0.456473    0.304035     0.004307
NI1755   NI        0.880890    0.490082    0.336590     0.004307
NI1756   NI        0.909081    0.457367    0.336377     0.004307
NI1757   NI        0.909505    0.488791    0.306280     0.004307
NI1758   NI        0.027652    0.522395    0.337066     0.004307
NI1759   NI        0.055520    0.522207    0.303377     0.004307
CU1760   CU        0.058655    0.557239    0.335297     0.006663
CU1761   CU        0.088262    0.522653    0.336338     0.006663
NI1762   NI        0.088766    0.556637    0.303761     0.004307
NI1763   NI        0.120216    0.524559    0.302265     0.004307
CU1764   CU        0.119235    0.555529    0.333799     0.006663
NI1765   NI        0.150346    0.522355    0.334971     0.004307
CU1766   CU        0.152621    0.557729    0.302776     0.006663
NI1767   NI        0.181304    0.524617    0.306475     0.004307
NI1768   NI        0.183417    0.555647    0.338217     0.004307
NI1769   NI        0.236271    0.519815    0.338310     0.004307
NI1770   NI        0.238961    0.552813    0.311067     0.004307
NI1771   NI        0.267659    0.518104    0.308399     0.004307
CU1772   CU        0.271165    0.552861    0.340919     0.006663
CU1773   CU        0.299237    0.519646    0.341031     0.006663
NI1774   NI        0.303745    0.548706    0.310207     0.004307
CU1775   CU        0.334712    0.517705    0.310451     0.006663
CU1776   CU        0.336011    0.551645    0.341124     0.006663
CU1777   CU        0.370389    0.519625    0.343261     0.006663
CU1778   CU        0.366716    0.550543    0.309735     0.006663
CU1779   CU        0.401227    0.517831    0.308960     0.006663
CU1780   CU        0.401881    0.553005    0.342229     0.006663
CU1781   CU        0.435260    0.519023    0.339258     0.006663
CU1782   CU        0.435045    0.551884    0.308969     0.006663
CU1783   CU        0.469588    0.520600    0.308087     0.006663
CU1784   CU        0.469568    0.551259    0.339698     0.006663
CU1785   CU        0.501215    0.521296    0.341742     0.006663
CU1786   CU        0.501156    0.553583    0.308809     0.006663
CU1787   CU        0.532136    0.519463    0.311258     0.006663
CU1788   CU        0.534037    0.551908    0.342543     0.006663
CU1789   CU        0.565798    0.519161    0.341862     0.006663
CU1790   CU        0.567358    0.550005    0.310560     0.006663
CU1791   CU        0.600437    0.518000    0.310855     0.006663
CU1792   CU        0.599152    0.550744    0.343369     0.006663
CU1793   CU        0.632097    0.520466    0.342728     0.006663
NI1794   NI        0.632726    0.549440    0.311631     0.004307
NI1795   NI        0.666999    0.518215    0.312153     0.004307
CU1796   CU        0.663955    0.550303    0.341567     0.006663
NI1797   NI        0.701809    0.518021    0.343142     0.004307
NI1798   NI        0.697444    0.546391    0.313500     0.004307
NI1799   NI        0.734278    0.517571    0.311097     0.004307
CU1800   CU        0.732588    0.549503    0.341303     0.006663
NI1801   NI        0.766853    0.519743    0.342260     0.004307
NI1802   NI        0.767665    0.547951    0.307482     0.004307
NI1803   NI        0.817073    0.528176    0.303180     0.004307
CU1804   CU        0.796817    0.549244    0.336744     0.006663
CU1805   CU        0.848157    0.524061    0.338617     0.006663
NI1806   NI        0.852418    0.554881    0.305925     0.004307
NI1807   NI        0.878619    0.522285    0.306497     0.004307
NI1808   NI        0.880378    0.555374    0.338329     0.004307
CU1809   CU        0.911011    0.522312    0.337279     0.006663
NI1810   NI        0.059551    0.589527    0.305573     0.004307
NI1811   NI        0.059882    0.623540    0.338037     0.004307
CU1812   CU        0.089097    0.590690    0.337303     0.006663
CU1813   CU        0.091818    0.622055    0.307508     0.006663
NI1814   NI        0.119602    0.588504    0.304493     0.004307
NI1815   NI        0.122441    0.623726    0.337876     0.004307
NI1816   NI        0.151362    0.589561    0.337148     0.004307
NI1817   NI        0.153570    0.622966    0.306072     0.004307
NI1818   NI        0.186268    0.589515    0.309371     0.004307
NI1819   NI        0.185124    0.622282    0.337028     0.004307
NI1820   NI        0.237390    0.583642    0.340030     0.004307
NI1821   NI        0.238707    0.614623    0.307751     0.004307
CU1822   CU        0.271354    0.581979    0.309352     0.006663
CU1823   CU        0.271482    0.613065    0.340542     0.006663
CU1824   CU        0.303300    0.581480    0.341006     0.006663
NI1825   NI        0.304258    0.614571    0.308599     0.004307
CU1826   CU        0.334282    0.581956    0.309064     0.006663
NI1827   NI        0.333659    0.614111    0.342696     0.004307
CU1828   CU        0.366301    0.581585    0.341773     0.006663
CU1829   CU        0.365511    0.615146    0.310798     0.006663
CU1830   CU        0.400424    0.582291    0.310823     0.006663
NI1831   NI        0.398356    0.614952    0.341719     0.004307
CU1832   CU        0.434327    0.584007    0.342465     0.006663
CU1833   CU        0.433237    0.614331    0.308919     0.006663
CU1834   CU        0.468070    0.583046    0.307766     0.006663
NI1835   NI        0.470437    0.613514    0.341707     0.004307
CU1836   CU        0.500667    0.581720    0.342334     0.006663
NI1837   NI        0.502229    0.613990    0.309068     0.004307
CU1838   CU        0.533067    0.582697    0.309598     0.006663
CU1839   CU        0.533400    0.612739    0.342851     0.006663
CU1840   CU        0.568499    0.582558    0.340789     0.006663
CU1841   CU        0.564736    0.614394    0.310491     0.006663
NI1842   NI        0.598911    0.582234    0.312162     0.004307
CU1843   CU        0.600341    0.615420    0.342039     0.006663
NI1844   NI        0.633233    0.581606    0.343000     0.004307
NI1845   NI        0.635221    0.613513    0.311022     0.004307
CU1846   CU        0.665122    0.579987    0.312197     0.006663
CU1847   CU        0.664536    0.612538    0.343008     0.006663
CU1848   CU        0.696980    0.580045    0.343823     0.006663
CU1849   CU        0.695582    0.611631    0.314452     0.006663
NI1850   NI        0.749368    0.588628    0.299589     0.004307
CU1851   CU        0.727728    0.609111    0.343858     0.006663
NI1852   NI        0.762563    0.579513    0.339864     0.004307
NI1853   NI        0.779334    0.620337    0.297492     0.004307
NI1854   NI        0.795837    0.582028    0.306651     0.004307
CU1855   CU        0.790677    0.609298    0.336027     0.006663
NI1856   NI        0.849430    0.586699    0.343507     0.004307
NI1857   NI        0.844748    0.623778    0.299075     0.004307
NI1858   NI        0.875561    0.590555    0.307016     0.004307
NI1859   NI        0.872727    0.624241    0.335059     0.004307
NI1860   NI        0.089506    0.655252    0.333864     0.004307
NI1861   NI        0.089880    0.720522    0.337236     0.004307
NI1862   NI        0.123609    0.653691    0.303092     0.004307
NI1863   NI        0.121801    0.689891    0.336599     0.004307
NI1864   NI        0.153584    0.653648    0.337694     0.004307
NI1865   NI        0.156488    0.690045    0.309430     0.004307
CU1866   CU        0.186310    0.657566    0.306447     0.006663
CU1867   CU        0.188665    0.688570    0.339999     0.006663
NI1868   NI        0.239567    0.644457    0.340168     0.004307
NI1869   NI        0.241507    0.684876    0.301219     0.004307
CU1870   CU        0.268953    0.647279    0.307040     0.006663
NI1871   NI        0.271020    0.680035    0.337084     0.004307
CU1872   CU        0.300488    0.648321    0.339771     0.006663
NI1873   NI        0.302101    0.678044    0.307978     0.004307
CU1874   CU        0.336051    0.647531    0.310097     0.006663
CU1875   CU        0.334385    0.677582    0.340841     0.006663
NI1876   NI        0.367283    0.646367    0.341113     0.004307
CU1877   CU        0.369585    0.674189    0.309914     0.006663
NI1878   NI        0.402042    0.644689    0.309724     0.004307
CU1879   CU        0.404502    0.673227    0.342836     0.006663
NI1880   NI        0.435553    0.642940    0.341796     0.004307
CU1881   CU        0.437632    0.674516    0.310670     0.006663
CU1882   CU        0.469063    0.644029    0.310639     0.006663
CU1883   CU        0.467008    0.673040    0.343153     0.006663
CU1884   CU        0.500794    0.644201    0.342142     0.006663
NI1885   NI        0.499865    0.674595    0.310309     0.004307
CU1886   CU        0.533618    0.646021    0.310691     0.006663
CU1887   CU        0.534087    0.677033    0.341835     0.006663
CU1888   CU        0.567383    0.644720    0.340442     0.006663
NI1889   NI        0.565187    0.674863    0.311552     0.004307
CU1890   CU        0.600421    0.644375    0.309568     0.006663
CU1891   CU        0.599256    0.675662    0.343337     0.006663
CU1892   CU        0.632831    0.646867    0.343504     0.006663
NI1893   NI        0.634343    0.674786    0.313832     0.004307
NI1894   NI        0.668691    0.645193    0.308841     0.004307
NI1895   NI        0.668222    0.676635    0.345809     0.004307
NI1896   NI        0.695846    0.641163    0.343646     0.004307
NI1897   NI        0.709288    0.690112    0.298940     0.004307
NI1898   NI        0.719105    0.648985    0.309990     0.004307
CU1899   CU        0.718537    0.677951    0.340477     0.006663
CU1900   CU        0.754245    0.638486    0.333008     0.006663
NI1901   NI        0.762824    0.682015    0.339804     0.004307
NI1902   NI        0.813024    0.652426    0.300389     0.004307
NI1903   NI        0.796536    0.654663    0.340541     0.004307
CU1904   CU        0.843095    0.655097    0.338976     0.006663
CU1905   CU        0.844203    0.684990    0.304877     0.006663
NI1906   NI        0.125803    0.721059    0.306878     0.004307
NI1907   NI        0.123600    0.748737    0.338667     0.004307
NI1908   NI        0.157924    0.718994    0.339766     0.004307
NI1909   NI        0.155912    0.750715    0.308101     0.004307
NI1910   NI        0.189568    0.718137    0.307902     0.004307
CU1911   CU        0.188735    0.753859    0.339642     0.006663
NI1912   NI        0.222237    0.722952    0.338857     0.004307
CU1913   CU        0.221527    0.756165    0.309219     0.006663
CU1914   CU        0.273979    0.711805    0.307571     0.006663
NI1915   NI        0.255047    0.754829    0.338486     0.004307
NI1916   NI        0.303389    0.709114    0.339744     0.004307
CU1917   CU        0.308780    0.738995    0.306242     0.006663
NI1918   NI        0.337561    0.705237    0.308732     0.004307
NI1919   NI        0.341162    0.734169    0.338940     0.004307
CU1920   CU        0.370439    0.704695    0.340713     0.006663
NI1921   NI        0.374155    0.733729    0.308834     0.004307
CU1922   CU        0.404066    0.702737    0.311353     0.006663
NI1923   NI        0.404138    0.734024    0.342328     0.004307
NI1924   NI        0.437790    0.705731    0.339226     0.004307
NI1925   NI        0.435211    0.736321    0.309829     0.004307
CU1926   CU        0.469341    0.704380    0.307578     0.006663
CU1927   CU        0.468697    0.756796    0.337778     0.006663
NI1928   NI        0.500928    0.706958    0.341056     0.004307
NI1929   NI        0.504905    0.758121    0.307990     0.004307
CU1930   CU        0.532749    0.708986    0.310667     0.006663
NI1931   NI        0.531274    0.737547    0.340208     0.004307
NI1932   NI        0.567736    0.709192    0.342513     0.004307
CU1933   CU        0.576315    0.755260    0.303438     0.006663
NI1934   NI        0.609922    0.720423    0.302745     0.004307
NI1935   NI        0.608265    0.757654    0.335935     0.004307
NI1936   NI        0.633404    0.706067    0.343825     0.004307
NI1937   NI        0.643683    0.752684    0.303209     0.004307
CU1938   CU        0.679489    0.724097    0.303225     0.006663
CU1939   CU        0.677094    0.753830    0.332789     0.006663
NI1940   NI        0.694428    0.713330    0.342373     0.004307
CU1941   CU        0.711322    0.752538    0.301789     0.006663
NI1942   NI        0.745780    0.720285    0.303388     0.004307
NI1943   NI        0.748258    0.749209    0.339460     0.004307
CU1944   CU        0.783565    0.719101    0.341588     0.006663
NI1945   NI        0.778375    0.749396    0.305356     0.004307
NI1946   NI        0.810630    0.719754    0.302873     0.004307
NI1947   NI        0.811378    0.749396    0.334305     0.004307
NI1948   NI        0.154695    0.783481    0.339947     0.004307
NI1949   NI        0.189575    0.785173    0.309898     0.004307
NI1950   NI        0.221862    0.785695    0.340360     0.004307
NI1951   NI        0.224584    0.815642    0.311475     0.004307
CU1952   CU        0.257096    0.786232    0.310805     0.006663
CU1953   CU        0.257611    0.814522    0.342105     0.006663
NI1954   NI        0.289815    0.783561    0.340833     0.004307
NI1955   NI        0.291816    0.811964    0.309508     0.004307
NI1956   NI        0.342826    0.769281    0.309531     0.004307
NI1957   NI        0.326110    0.815848    0.340257     0.004307
NI1958   NI        0.378511    0.769315    0.335099     0.004307
CU1959   CU        0.365474    0.812249    0.304383     0.006663
NI1960   NI        0.401371    0.786191    0.303179     0.004307
CU1961   CU        0.398568    0.813242    0.336518     0.006663
CU1962   CU        0.435232    0.786081    0.340410     0.006663
NI1963   NI        0.433220    0.814216    0.303308     0.004307
CU1964   CU        0.470127    0.787037    0.305513     0.006663
NI1965   NI        0.468326    0.815756    0.336627     0.004307
NI1966   NI        0.503229    0.787729    0.336860     0.004307
CU1967   CU        0.504499    0.816083    0.303186     0.006663
CU1968   CU        0.541183    0.783290    0.304099     0.006663
CU1969   CU        0.539456    0.813244    0.336652     0.006663
NI1970   NI        0.574570    0.784982    0.335591     0.004307
NI1971   NI        0.573984    0.814186    0.302985     0.004307
CU1972   CU        0.608212    0.785043    0.301321     0.006663
NI1973   NI        0.608783    0.814101    0.335251     0.004307
NI1974   NI        0.645528    0.783895    0.336233     0.004307
NI1975   NI        0.643196    0.815950    0.303453     0.004307
NI1976   NI        0.679915    0.782716    0.303155     0.004307
NI1977   NI        0.678474    0.813357    0.339008     0.004307
CU1978   CU        0.711366    0.784101    0.336491     0.006663
NI1979   NI        0.713432    0.810836    0.305088     0.004307
NI1980   NI        0.743581    0.778348    0.308361     0.004307
NI1981   NI        0.777810    0.779899    0.335862     0.004307
NI1982   NI        0.291441    0.843320    0.339035     0.004307
NI1983   NI        0.329714    0.837576    0.305195     0.004307
NI1984   NI        0.364391    0.842624    0.335126     0.004307
NI1985   NI        0.398189    0.841824    0.304981     0.004307
CU1986   CU        0.396725    0.871564    0.335992     0.006663
CU1987   CU        0.431720    0.843103    0.335160     0.006663
NI1988   NI        0.432585    0.872953    0.304944     0.004307
NI1989   NI        0.467102    0.843234    0.302075     0.004307
NI1990   NI        0.467033    0.869959    0.335829     0.004307
NI1991   NI        0.504542    0.841947    0.335917     0.004307
CU1992   CU        0.506006    0.870902    0.303575     0.006663
NI1993   NI        0.540070    0.841537    0.305491     0.004307
NI1994   NI        0.535942    0.872251    0.336296     0.004307
NI1995   NI        0.570403    0.843250    0.337362     0.004307
NI1996   NI        0.607476    0.842347    0.303227     0.004307
NI1997   NI        0.643659    0.843420    0.337281     0.004307
NI1998   NI        0.331581    0.046035    0.404514     0.004307
NI1999   NI        0.361142    0.043721    0.370415     0.004307
NI2000   NI        0.395408    0.040771    0.400515     0.004307
NI2001   NI        0.431476    0.040975    0.368743     0.004307
NI2002   NI        0.467418    0.041251    0.400769     0.004307
CU2003   CU        0.501334    0.040440    0.368984     0.006663
NI2004   NI        0.540282    0.043134    0.399510     0.004307
NI2005   NI        0.574161    0.044092    0.370695     0.004307
NI2006   NI        0.606412    0.046788    0.402471     0.004307
NI2007   NI        0.188313    0.104791    0.403343     0.004307
NI2008   NI        0.221865    0.102335    0.370008     0.004307
NI2009   NI        0.259104    0.072400    0.371253     0.004307
NI2010   NI        0.257440    0.101699    0.402620     0.004307
NI2011   NI        0.292975    0.076146    0.405170     0.004307
NI2012   NI        0.290088    0.103435    0.369760     0.004307
NI2013   NI        0.329562    0.072850    0.369545     0.004307
NI2014   NI        0.332092    0.101716    0.402904     0.004307
NI2015   NI        0.366270    0.070663    0.400411     0.004307
NI2016   NI        0.364542    0.103449    0.369945     0.004307
NI2017   NI        0.397901    0.072844    0.369667     0.004307
NI2018   NI        0.398889    0.099700    0.403554     0.004307
CU2019   CU        0.433698    0.069045    0.402077     0.006663
NI2020   NI        0.430616    0.100505    0.368677     0.004307
CU2021   CU        0.465828    0.069481    0.368269     0.006663
NI2022   NI        0.467889    0.098679    0.402218     0.004307
NI2023   NI        0.503039    0.069028    0.403868     0.004307
NI2024   NI        0.501418    0.098958    0.374621     0.004307
NI2025   NI        0.534558    0.070067    0.369633     0.004307
NI2026   NI        0.535661    0.098950    0.404800     0.004307
NI2027   NI        0.572930    0.074441    0.400090     0.004307
NI2028   NI        0.574898    0.101881    0.366741     0.004307
NI2029   NI        0.611104    0.073764    0.369632     0.004307
NI2030   NI        0.610962    0.101112    0.400417     0.004307
CU2031   CU        0.644175    0.072492    0.402619     0.006663
NI2032   NI        0.645217    0.102756    0.368078     0.004307
NI2033   NI        0.677479    0.073817    0.369393     0.004307
NI2034   NI        0.675737    0.103445    0.403802     0.004307
NI2035   NI        0.710027    0.104113    0.370403     0.004307
NI2036   NI        0.745096    0.103164    0.402488     0.004307
NI2037   NI        0.123271    0.133856    0.429875     0.004307
NI2038   NI        0.155965    0.132334    0.402401     0.004307
NI2039   NI        0.154877    0.163925    0.368452     0.004307
NI2040   NI        0.186743    0.132641    0.370659     0.004307
CU2041   CU        0.187508    0.164147    0.401367     0.006663
NI2042   NI        0.221601    0.133726    0.401173     0.004307
NI2043   NI        0.221486    0.162981    0.370299     0.004307
NI2044   NI        0.255406    0.131177    0.370204     0.004307
NI2045   NI        0.269266    0.180908    0.403437     0.004307
NI2046   NI        0.294822    0.122139    0.409940     0.004307
NI2047   NI        0.306348    0.177076    0.374708     0.004307
NI2048   NI        0.338686    0.143756    0.373180     0.004307
CU2049   CU        0.336541    0.174743    0.404589     0.006663
NI2050   NI        0.367408    0.130047    0.404736     0.004307
CU2051   CU        0.370726    0.176840    0.376950     0.006663
CU2052   CU        0.399103    0.131252    0.370660     0.006663
NI2053   NI        0.398861    0.157760    0.405925     0.004307
CU2054   CU        0.432327    0.129964    0.402988     0.006663
NI2055   NI        0.431463    0.160831    0.369009     0.004307
CU2056   CU        0.465489    0.130765    0.370048     0.006663
NI2057   NI        0.467136    0.173869    0.402006     0.004307
NI2058   NI        0.501649    0.128275    0.403926     0.004307
NI2059   NI        0.498697    0.166441    0.372743     0.004307
NI2060   NI        0.532017    0.135359    0.374159     0.004307
CU2061   CU        0.536245    0.173806    0.404621     0.006663
NI2062   NI        0.571233    0.125048    0.404392     0.004307
CU2063   CU        0.566767    0.175233    0.374020     0.006663
CU2064   CU        0.610600    0.131580    0.366074     0.006663
NI2065   NI        0.606126    0.153777    0.402919     0.004307
NI2066   NI        0.640923    0.131437    0.397509     0.004307
NI2067   NI        0.643626    0.163478    0.366036     0.004307
NI2068   NI        0.677628    0.133185    0.366921     0.004307
NI2069   NI        0.679237    0.161951    0.398622     0.004307
NI2070   NI        0.712847    0.133384    0.402164     0.004307
CU2071   CU        0.711785    0.162991    0.369913     0.006663
NI2072   NI        0.744678    0.132265    0.372026     0.004307
NI2073   NI        0.745935    0.164896    0.400839     0.004307
NI2074   NI        0.775883    0.134864    0.403808     0.004307
NI2075   NI        0.779298    0.162458    0.371119     0.004307
NI2076   NI        0.812433    0.163048    0.402784     0.004307
NI2077   NI        0.088638    0.199518    0.403451     0.004307
NI2078   NI        0.089656    0.228791    0.370801     0.004307
NI2079   NI        0.121862    0.196159    0.371134     0.004307
NI2080   NI        0.121007    0.228362    0.407173     0.004307
CU2081   CU        0.153034    0.193159    0.401457     0.006663
CU2082   CU        0.155305    0.226371    0.370849     0.006663
NI2083   NI        0.186891    0.195430    0.370501     0.004307
NI2084   NI        0.184320    0.224770    0.406479     0.004307
CU2085   CU        0.219681    0.195055    0.402215     0.006663
NI2086   NI        0.241904    0.246486    0.375344     0.004307
NI2087   NI        0.274167    0.213239    0.378796     0.004307
NI2088   NI        0.271528    0.244487    0.406270     0.004307
NI2089   NI        0.304898    0.208045    0.406478     0.004307
NI2090   NI        0.307456    0.241639    0.377457     0.004307
NI2091   NI        0.339895    0.208820    0.377570     0.004307
NI2092   NI        0.338184    0.239821    0.407164     0.004307
NI2093   NI        0.368886    0.207640    0.407307     0.004307
NI2094   NI        0.370711    0.239958    0.372923     0.004307
NI2095   NI        0.400725    0.208317    0.374643     0.004307
CU2096   CU        0.401788    0.238214    0.403447     0.006663
NI2097   NI        0.434523    0.207601    0.403820     0.004307
NI2098   NI        0.437148    0.235673    0.373235     0.004307
NI2099   NI        0.469284    0.201695    0.370715     0.004307
NI2100   NI        0.468753    0.234479    0.403587     0.004307
CU2101   CU        0.500375    0.202402    0.400773     0.006663
CU2102   CU        0.501141    0.233925    0.371951     0.006663
CU2103   CU        0.534184    0.204553    0.374099     0.006663
NI2104   NI        0.532698    0.234959    0.403024     0.004307
NI2105   NI        0.568000    0.204797    0.403574     0.004307
CU2106   CU        0.565655    0.234398    0.372984     0.006663
NI2107   NI        0.600905    0.208422    0.373702     0.004307
NI2108   NI        0.598542    0.238570    0.409223     0.004307
NI2109   NI        0.630975    0.208720    0.405767     0.004307
NI2110   NI        0.644177    0.224788    0.366802     0.004307
NI2111   NI        0.679523    0.194364    0.369301     0.004307
CU2112   CU        0.680924    0.224944    0.398663     0.006663
NI2113   NI        0.714630    0.195242    0.402208     0.004307
CU2114   CU        0.713704    0.225879    0.368853     0.006663
CU2115   CU        0.745968    0.194099    0.369761     0.006663
NI2116   NI        0.746829    0.225811    0.402245     0.004307
CU2117   CU        0.779061    0.192915    0.403383     0.006663
NI2118   NI        0.779512    0.225766    0.370451     0.004307
NI2119   NI        0.811825    0.193514    0.370066     0.004307
NI2120   NI        0.812703    0.227412    0.404564     0.004307
NI2121   NI        0.844765    0.194539    0.405885     0.004307
NI2122   NI        0.843145    0.225912    0.372372     0.004307
NI2123   NI        0.058938    0.259801    0.371112     0.004307
NI2124   NI        0.057766    0.291632    0.401074     0.004307
CU2125   CU        0.090075    0.260798    0.403374     0.006663
NI2126   NI        0.089588    0.289920    0.367728     0.004307
CU2127   CU        0.122001    0.261344    0.367913     0.006663
NI2128   NI        0.119395    0.292797    0.400773     0.004307
CU2129   CU        0.152699    0.258749    0.401388     0.006663
NI2130   NI        0.152985    0.293964    0.369968     0.004307
NI2131   NI        0.183712    0.259765    0.367343     0.004307
NI2132   NI        0.184798    0.289668    0.401029     0.004307
NI2133   NI        0.235996    0.274067    0.405880     0.004307
NI2134   NI        0.239005    0.303096    0.373266     0.004307
NI2135   NI        0.274082    0.273454    0.376471     0.004307
CU2136   CU        0.269789    0.303402    0.404935     0.006663
CU2137   CU        0.305257    0.271772    0.406665     0.006663
NI2138   NI        0.303568    0.302342    0.375255     0.004307
NI2139   NI        0.337870    0.271675    0.376086     0.004307
CU2140   CU        0.335026    0.303200    0.406635     0.006663
CU2141   CU        0.369900    0.268963    0.404640     0.006663
NI2142   NI        0.373153    0.301422    0.371684     0.004307
CU2143   CU        0.403701    0.268238    0.373944     0.006663
CU2144   CU        0.403660    0.297578    0.406753     0.006663
NI2145   NI        0.437237    0.266014    0.404571     0.004307
CU2146   CU        0.437026    0.296227    0.372310     0.006663
CU2147   CU        0.469848    0.265411    0.374071     0.006663
CU2148   CU        0.470594    0.298096    0.402748     0.006663
CU2149   CU        0.501722    0.266109    0.406007     0.006663
CU2150   CU        0.504577    0.296490    0.374401     0.006663
CU2151   CU        0.533721    0.266154    0.372287     0.006663
CU2152   CU        0.532765    0.298166    0.405245     0.006663
CU2153   CU        0.563820    0.269133    0.406088     0.006663
CU2154   CU        0.566933    0.298137    0.373808     0.006663
CU2155   CU        0.600043    0.268406    0.374825     0.006663
CU2156   CU        0.602697    0.299357    0.407363     0.006663
NI2157   NI        0.633592    0.269141    0.405228     0.004307
CU2158   CU        0.635289    0.300525    0.374633     0.006663
NI2159   NI        0.683859    0.258036    0.369006     0.004307
NI2160   NI        0.667335    0.299220    0.408419     0.004307
NI2161   NI        0.712485    0.256036    0.401850     0.004307
NI2162   NI        0.713798    0.289521    0.368479     0.004307
CU2163   CU        0.748607    0.259355    0.368170     0.006663
CU2164   CU        0.743840    0.287829    0.400601     0.006663
CU2165   CU        0.780106    0.258565    0.403927     0.006663
NI2166   NI        0.780434    0.290171    0.368990     0.004307
NI2167   NI        0.812174    0.258517    0.370818     0.004307
NI2168   NI        0.813681    0.291873    0.400872     0.004307
NI2169   NI        0.846399    0.262151    0.402208     0.004307
NI2170   NI        0.845953    0.292549    0.368397     0.004307
NI2171   NI        0.876244    0.258023    0.371537     0.004307
CU2172   CU        0.879010    0.291466    0.401914     0.006663
NI2173   NI        0.027552    0.323139    0.402950     0.004307
NI2174   NI        0.027170    0.358652    0.369259     0.004307
NI2175   NI        0.055700    0.322274    0.370177     0.004307
CU2176   CU        0.054476    0.356645    0.405388     0.006663
NI2177   NI        0.087093    0.322876    0.400909     0.004307
NI2178   NI        0.087789    0.358436    0.369851     0.004307
NI2179   NI        0.118113    0.323818    0.369157     0.004307
NI2180   NI        0.119597    0.354640    0.398845     0.004307
NI2181   NI        0.151247    0.322766    0.401068     0.004307
NI2182   NI        0.168763    0.360510    0.375125     0.004307
NI2183   NI        0.201956    0.331323    0.373220     0.004307
NI2184   NI        0.200246    0.360392    0.405305     0.004307
CU2185   CU        0.235129    0.333757    0.403690     0.006663
NI2186   NI        0.234472    0.363775    0.374056     0.004307
CU2187   CU        0.269935    0.334383    0.373932     0.006663
NI2188   NI        0.267072    0.364435    0.405109     0.004307
CU2189   CU        0.300644    0.334676    0.406641     0.006663
CU2190   CU        0.299737    0.363618    0.374429     0.006663
CU2191   CU        0.334381    0.333424    0.373676     0.006663
CU2192   CU        0.334185    0.363152    0.407170     0.006663
CU2193   CU        0.369926    0.332246    0.403044     0.006663
CU2194   CU        0.367404    0.362805    0.373951     0.006663
CU2195   CU        0.402790    0.331817    0.371205     0.006663
CU2196   CU        0.402506    0.364077    0.403149     0.006663
CU2197   CU        0.434643    0.328116    0.401466     0.006663
CU2198   CU        0.434755    0.362218    0.373845     0.006663
CU2199   CU        0.467473    0.329712    0.373601     0.006663
CU2200   CU        0.468558    0.362272    0.404333     0.006663
CU2201   CU        0.499646    0.331299    0.405773     0.006663
NI2202   NI        0.501425    0.361576    0.373540     0.004307
CU2203   CU        0.535819    0.328890    0.373132     0.006663
CU2204   CU        0.534463    0.362551    0.406692     0.006663
CU2205   CU        0.568073    0.330194    0.402515     0.006663
CU2206   CU        0.568575    0.361238    0.372393     0.006663
NI2207   NI        0.601273    0.329454    0.373440     0.004307
CU2208   CU        0.600833    0.361693    0.405629     0.006663
CU2209   CU        0.632622    0.331424    0.405904     0.006663
NI2210   NI        0.633511    0.362812    0.374401     0.004307
NI2211   NI        0.679207    0.317636    0.371029     0.004307
CU2212   CU        0.667326    0.363715    0.406542     0.006663
NI2213   NI        0.712447    0.321191    0.397833     0.004307
NI2214   NI        0.712470    0.352606    0.366451     0.004307
CU2215   CU        0.748656    0.321435    0.370047     0.006663
NI2216   NI        0.745836    0.357092    0.395091     0.004307
NI2217   NI        0.784618    0.325579    0.400074     0.004307
NI2218   NI        0.782282    0.352921    0.367682     0.004307
NI2219   NI        0.814298    0.323437    0.368462     0.004307
NI2220   NI        0.815840    0.356927    0.401560     0.004307
NI2221   NI        0.848370    0.323913    0.400360     0.004307
NI2222   NI        0.846469    0.355520    0.368164     0.004307
NI2223   NI        0.878227    0.324808    0.368810     0.004307
NI2224   NI        0.878216    0.356603    0.403713     0.004307
NI2225   NI        0.909978    0.326508    0.402758     0.004307
NI2226   NI        0.911407    0.361782    0.367765     0.004307
CU2227   CU        0.025652    0.389281    0.402107     0.006663
NI2228   NI        0.024463    0.424257    0.370598     0.004307
NI2229   NI        0.055784    0.391055    0.369276     0.004307
CU2230   CU        0.053694    0.423843    0.401930     0.006663
NI2231   NI        0.087509    0.391920    0.402057     0.004307
CU2232   CU        0.087386    0.423115    0.370103     0.006663
NI2233   NI        0.118574    0.392720    0.369216     0.004307
NI2234   NI        0.118512    0.424121    0.403426     0.004307
NI2235   NI        0.166919    0.392605    0.403524     0.004307
NI2236   NI        0.152353    0.427649    0.369064     0.004307
CU2237   CU        0.201636    0.392476    0.373185     0.006663
NI2238   NI        0.201082    0.424179    0.405825     0.004307
CU2239   CU        0.232496    0.393107    0.405337     0.006663
CU2240   CU        0.233877    0.426581    0.372689     0.006663
CU2241   CU        0.265170    0.395100    0.372873     0.006663
NI2242   NI        0.265663    0.424356    0.404830     0.004307
CU2243   CU        0.300058    0.393268    0.405458     0.006663
CU2244   CU        0.301623    0.424265    0.373313     0.006663
NI2245   NI        0.333414    0.393917    0.372209     0.004307
CU2246   CU        0.331743    0.425200    0.404461     0.006663
CU2247   CU        0.369415    0.394652    0.405600     0.006663
CU2248   CU        0.366686    0.425959    0.372104     0.006663
CU2249   CU        0.402118    0.394211    0.370427     0.006663
CU2250   CU        0.400097    0.425111    0.403812     0.006663
CU2251   CU        0.434147    0.393979    0.401988     0.006663
CU2252   CU        0.435883    0.428776    0.372849     0.006663
CU2253   CU        0.466535    0.396402    0.371352     0.006663
CU2254   CU        0.468677    0.424946    0.403700     0.006663
CU2255   CU        0.502473    0.392354    0.404203     0.006663
CU2256   CU        0.500954    0.425819    0.373408     0.006663
CU2257   CU        0.535096    0.393593    0.372701     0.006663
CU2258   CU        0.535733    0.424859    0.404016     0.006663
CU2259   CU        0.569389    0.393060    0.403046     0.006663
NI2260   NI        0.570469    0.425097    0.374466     0.004307
CU2261   CU        0.601787    0.394072    0.373044     0.006663
CU2262   CU        0.602586    0.425227    0.405074     0.006663
CU2263   CU        0.635549    0.392767    0.406686     0.006663
CU2264   CU        0.636526    0.424092    0.373654     0.006663
CU2265   CU        0.669196    0.392231    0.373120     0.006663
CU2266   CU        0.671088    0.424382    0.404559     0.006663
NI2267   NI        0.702842    0.394628    0.407203     0.004307
CU2268   CU        0.702198    0.425183    0.372551     0.006663
NI2269   NI        0.733739    0.394919    0.376617     0.004307
NI2270   NI        0.734014    0.426619    0.404582     0.004307
NI2271   NI        0.765631    0.393453    0.406053     0.004307
NI2272   NI        0.768928    0.424905    0.376103     0.004307
CU2273   CU        0.823549    0.393472    0.371247     0.006663
CU2274   CU        0.822299    0.424032    0.402916     0.006663
NI2275   NI        0.851297    0.391144    0.403673     0.004307
CU2276   CU        0.853244    0.426720    0.372885     0.006663
CU2277   CU        0.879583    0.391214    0.368182     0.006663
CU2278   CU        0.883301    0.421592    0.403698     0.006663
NI2279   NI        0.908675    0.387490    0.404931     0.004307
NI2280   NI        0.908903    0.425678    0.365300     0.004307
NI2281   NI        0.026292    0.460790    0.400909     0.004307
NI2282   NI        0.029490    0.491169    0.366061     0.004307
NI2283   NI        0.058603    0.455159    0.369346     0.004307
NI2284   NI        0.054972    0.493140    0.401154     0.004307
NI2285   NI        0.084998    0.459942    0.401906     0.004307
NI2286   NI        0.086027    0.491873    0.369504     0.004307
CU2287   CU        0.117287    0.459354    0.369569     0.006663
CU2288   CU        0.118367    0.491536    0.401566     0.006663
CU2289   CU        0.149552    0.457315    0.402560     0.006663
NI2290   NI        0.149851    0.490196    0.368458     0.004307
CU2291   CU        0.181802    0.461390    0.367617     0.006663
NI2292   NI        0.185200    0.491764    0.398777     0.004307
NI2293   NI        0.234001    0.454714    0.404662     0.004307
NI2294   NI        0.235724    0.485426    0.374024     0.004307
CU2295   CU        0.268237    0.456267    0.373129     0.006663
CU2296   CU        0.267348    0.491022    0.404971     0.006663
CU2297   CU        0.301040    0.457528    0.406144     0.006663
CU2298   CU        0.300408    0.489192    0.372977     0.006663
CU2299   CU        0.332669    0.458113    0.372146     0.006663
CU2300   CU        0.334813    0.488410    0.404058     0.006663
CU2301   CU        0.368175    0.457348    0.403834     0.006663
CU2302   CU        0.366170    0.489597    0.373998     0.006663
CU2303   CU        0.401718    0.457606    0.372969     0.006663
CU2304   CU        0.400914    0.491110    0.403768     0.006663
CU2305   CU        0.436559    0.456970    0.403628     0.006663
CU2306   CU        0.434049    0.490241    0.371631     0.006663
CU2307   CU        0.466481    0.459231    0.371505     0.006663
CU2308   CU        0.467787    0.488584    0.405535     0.006663
CU2309   CU        0.500180    0.458173    0.405691     0.006663
CU2310   CU        0.501407    0.489264    0.373150     0.006663
CU2311   CU        0.535591    0.459397    0.375389     0.006663
CU2312   CU        0.536063    0.489632    0.405002     0.006663
CU2313   CU        0.570086    0.454349    0.405916     0.006663
CU2314   CU        0.570364    0.487239    0.373826     0.006663
CU2315   CU        0.602229    0.459118    0.373518     0.006663
CU2316   CU        0.601097    0.491707    0.406013     0.006663
CU2317   CU        0.635957    0.456822    0.406135     0.006663
CU2318   CU        0.634886    0.487620    0.375149     0.006663
CU2319   CU        0.667470    0.456972    0.374104     0.006663
CU2320   CU        0.668891    0.487997    0.404155     0.006663
NI2321   NI        0.703393    0.456027    0.403274     0.004307
NI2322   NI        0.703880    0.486531    0.373972     0.004307
NI2323   NI        0.736015    0.454793    0.373578     0.004307
NI2324   NI        0.736306    0.485967    0.405733     0.004307
CU2325   CU        0.768972    0.455973    0.407703     0.006663
NI2326   NI        0.768968    0.488837    0.373473     0.004307
CU2327   CU        0.821639    0.458666    0.371414     0.006663
NI2328   NI        0.821772    0.489533    0.404305     0.004307
CU2329   CU        0.852595    0.456396    0.404622     0.006663
NI2330   NI        0.851912    0.488947    0.372090     0.004307
NI2331   NI        0.882869    0.459059    0.370727     0.004307
CU2332   CU        0.884849    0.492917    0.403025     0.006663
NI2333   NI        0.911491    0.458694    0.403521     0.004307
CU2334   CU        0.912654    0.491261    0.367667     0.006663
NI2335   NI        0.028811    0.531344    0.403592     0.004307
NI2336   NI        0.029517    0.559170    0.369980     0.004307
NI2337   NI        0.058709    0.525278    0.370595     0.004307
CU2338   CU        0.059467    0.559949    0.402094     0.006663
NI2339   NI        0.088917    0.524475    0.402329     0.004307
NI2340   NI        0.089156    0.557984    0.370625     0.004307
CU2341   CU        0.117162    0.523675    0.368757     0.006663
NI2342   NI        0.120790    0.556321    0.402293     0.004307
NI2343   NI        0.150625    0.524142    0.402050     0.004307
NI2344   NI        0.150344    0.557704    0.369976     0.004307
NI2345   NI        0.179537    0.523659    0.369416     0.004307
NI2346   NI        0.183108    0.556873    0.399791     0.004307
CU2347   CU        0.235376    0.522191    0.405629     0.006663
CU2348   CU        0.238453    0.553450    0.370380     0.006663
CU2349   CU        0.269309    0.520243    0.372730     0.006663
NI2350   NI        0.268334    0.551718    0.407753     0.004307
CU2351   CU        0.300961    0.520812    0.404538     0.006663
CU2352   CU        0.301098    0.551135    0.372693     0.006663
CU2353   CU        0.335064    0.520708    0.373343     0.006663
NI2354   NI        0.335514    0.552023    0.405111     0.004307
CU2355   CU        0.367250    0.520609    0.404851     0.006663
CU2356   CU        0.368945    0.551788    0.369721     0.006663
CU2357   CU        0.400827    0.520211    0.373032     0.006663
CU2358   CU        0.400258    0.550627    0.404786     0.006663
CU2359   CU        0.436217    0.520142    0.403763     0.006663
CU2360   CU        0.435750    0.550807    0.372070     0.006663
NI2361   NI        0.469730    0.519648    0.374097     0.004307
CU2362   CU        0.469912    0.550771    0.406617     0.006663
CU2363   CU        0.504724    0.520864    0.406166     0.006663
CU2364   CU        0.501043    0.550982    0.372272     0.006663
CU2365   CU        0.535215    0.518482    0.373885     0.006663
CU2366   CU        0.536756    0.551598    0.406793     0.006663
NI2367   NI        0.568657    0.521084    0.406337     0.004307
CU2368   CU        0.565660    0.548687    0.372963     0.006663
CU2369   CU        0.601358    0.521213    0.374377     0.006663
CU2370   CU        0.600402    0.552685    0.405245     0.006663
CU2371   CU        0.634650    0.520249    0.401559     0.006663
CU2372   CU        0.634473    0.549851    0.373051     0.006663
CU2373   CU        0.668495    0.521435    0.374077     0.006663
CU2374   CU        0.668772    0.549889    0.405659     0.006663
CU2375   CU        0.703207    0.520845    0.405486     0.006663
NI2376   NI        0.701025    0.549567    0.372715     0.004307
CU2377   CU        0.736010    0.518921    0.374433     0.006663
CU2378   CU        0.733965    0.550248    0.404323     0.006663
NI2379   NI        0.768775    0.520476    0.404204     0.004307
CU2380   CU        0.768266    0.550355    0.373202     0.006663
NI2381   NI        0.799887    0.521130    0.372565     0.004307
NI2382   NI        0.800633    0.555085    0.401990     0.004307
NI2383   NI        0.852309    0.520475    0.404519     0.004307
NI2384   NI        0.850428    0.555252    0.371294     0.004307
CU2385   CU        0.881444    0.522520    0.371151     0.006663
CU2386   CU        0.880529    0.553831    0.403234     0.006663
NI2387   NI        0.913586    0.524671    0.404121     0.004307
NI2388   NI        0.912229    0.556720    0.369991     0.004307
NI2389   NI        0.028334    0.590928    0.402599     0.004307
NI2390   NI        0.059896    0.591775    0.369079     0.004307
NI2391   NI        0.060945    0.620866    0.403781     0.004307
CU2392   CU        0.091890    0.589998    0.401493     0.006663
NI2393   NI        0.091104    0.624178    0.367710     0.004307
NI2394   NI        0.120256    0.590077    0.367918     0.004307
NI2395   NI        0.122345    0.622992    0.401830     0.004307
NI2396   NI        0.153043    0.589661    0.401430     0.004307
NI2397   NI        0.153713    0.623359    0.370775     0.004307
NI2398   NI        0.183206    0.586645    0.369629     0.004307
NI2399   NI        0.186130    0.625328    0.402008     0.004307
NI2400   NI        0.236913    0.583323    0.403023     0.004307
NI2401   NI        0.238542    0.614946    0.371196     0.004307
CU2402   CU        0.270302    0.582559    0.372333     0.006663
CU2403   CU        0.269419    0.613339    0.403649     0.006663
NI2404   NI        0.300507    0.581927    0.404796     0.004307
NI2405   NI        0.302607    0.616290    0.372441     0.004307
NI2406   NI        0.333927    0.581080    0.374160     0.004307
CU2407   CU        0.334255    0.614047    0.405294     0.006663
CU2408   CU        0.368893    0.583468    0.406569     0.006663
CU2409   CU        0.365992    0.613677    0.374731     0.006663
CU2410   CU        0.401282    0.582465    0.374423     0.006663
CU2411   CU        0.401673    0.613338    0.405881     0.006663
CU2412   CU        0.435139    0.581990    0.403893     0.006663
CU2413   CU        0.433720    0.614512    0.374169     0.006663
CU2414   CU        0.469025    0.584098    0.372482     0.006663
CU2415   CU        0.467171    0.612854    0.407433     0.006663
NI2416   NI        0.501955    0.583891    0.403949     0.004307
CU2417   CU        0.502239    0.614298    0.373424     0.006663
CU2418   CU        0.534664    0.581875    0.372762     0.006663
CU2419   CU        0.532953    0.613608    0.404165     0.006663
CU2420   CU        0.568068    0.585690    0.405936     0.006663
CU2421   CU        0.564830    0.617055    0.374563     0.006663
NI2422   NI        0.601533    0.583550    0.374106     0.004307
CU2423   CU        0.600367    0.616003    0.404514     0.006663
CU2424   CU        0.633478    0.582738    0.404207     0.006663
CU2425   CU        0.633193    0.613044    0.373061     0.006663
CU2426   CU        0.666739    0.580887    0.374034     0.006663
NI2427   NI        0.666515    0.611569    0.405066     0.004307
NI2428   NI        0.700906    0.580793    0.406697     0.004307
NI2429   NI        0.698133    0.612940    0.375397     0.004307
NI2430   NI        0.731318    0.578678    0.374491     0.004307
NI2431   NI        0.732632    0.612983    0.404282     0.004307
NI2432   NI        0.785011    0.594942    0.404778     0.004307
NI2433   NI        0.766622    0.612928    0.370326     0.004307
NI2434   NI        0.797344    0.581737    0.366862     0.004307
NI2435   NI        0.818239    0.622247    0.405518     0.004307
CU2436   CU        0.849713    0.590792    0.404310     0.006663
NI2437   NI        0.853430    0.626269    0.372375     0.004307
NI2438   NI        0.880450    0.588270    0.374167     0.004307
NI2439   NI        0.879994    0.621901    0.405909     0.004307
NI2440   NI        0.910343    0.586074    0.406654     0.004307
NI2441   NI        0.058104    0.653472    0.367630     0.004307
NI2442   NI        0.088890    0.655294    0.403346     0.004307
CU2443   CU        0.091196    0.689685    0.369065     0.006663
CU2444   CU        0.122081    0.656838    0.371535     0.006663
NI2445   NI        0.120414    0.685708    0.404101     0.004307
NI2446   NI        0.153229    0.656981    0.401986     0.004307
CU2447   CU        0.154607    0.689473    0.371576     0.006663
NI2448   NI        0.185280    0.656622    0.371934     0.004307
NI2449   NI        0.187001    0.691110    0.401283     0.004307
NI2450   NI        0.237656    0.643658    0.404137     0.004307
NI2451   NI        0.220144    0.690838    0.370755     0.004307
NI2452   NI        0.271056    0.646348    0.375049     0.004307
CU2453   CU        0.271170    0.674201    0.405978     0.006663
CU2454   CU        0.302221    0.642776    0.406193     0.006663
NI2455   NI        0.300371    0.678710    0.373555     0.004307
NI2456   NI        0.336905    0.646028    0.374135     0.004307
NI2457   NI        0.332653    0.676925    0.407525     0.004307
CU2458   CU        0.366728    0.642808    0.407369     0.006663
CU2459   CU        0.368192    0.675329    0.374139     0.006663
CU2460   CU        0.398847    0.643184    0.375740     0.006663
CU2461   CU        0.401104    0.676200    0.405317     0.006663
CU2462   CU        0.434387    0.644010    0.407037     0.006663
CU2463   CU        0.434052    0.673563    0.375293     0.006663
NI2464   NI        0.468195    0.643739    0.374127     0.004307
CU2465   CU        0.469186    0.674349    0.405784     0.006663
CU2466   CU        0.501832    0.645879    0.403710     0.006663
CU2467   CU        0.500504    0.676457    0.371696     0.006663
CU2468   CU        0.532819    0.645454    0.372508     0.006663
CU2469   CU        0.532767    0.676553    0.403199     0.006663
CU2470   CU        0.567131    0.645803    0.404891     0.006663
NI2471   NI        0.567768    0.680637    0.373524     0.004307
CU2472   CU        0.600336    0.645813    0.373629     0.006663
NI2473   NI        0.600565    0.676362    0.403615     0.004307
CU2474   CU        0.633823    0.646032    0.405281     0.006663
CU2475   CU        0.633596    0.676722    0.375617     0.006663
NI2476   NI        0.663596    0.642822    0.375922     0.004307
NI2477   NI        0.667156    0.677900    0.406324     0.004307
NI2478   NI        0.699340    0.643041    0.406527     0.004307
NI2479   NI        0.696342    0.673256    0.377079     0.004307
NI2480   NI        0.729655    0.642339    0.368790     0.004307
NI2481   NI        0.750151    0.691539    0.402856     0.004307
NI2482   NI        0.777334    0.639561    0.405964     0.004307
NI2483   NI        0.785613    0.688509    0.375806     0.004307
NI2484   NI        0.820130    0.654976    0.375896     0.004307
NI2485   NI        0.816504    0.688562    0.405635     0.004307
NI2486   NI        0.848414    0.655192    0.406535     0.004307
NI2487   NI        0.849295    0.686287    0.374933     0.004307
NI2488   NI        0.884917    0.655992    0.379371     0.004307
NI2489   NI        0.092096    0.721400    0.403655     0.004307
NI2490   NI        0.122466    0.719506    0.370410     0.004307
NI2491   NI        0.125699    0.751763    0.402226     0.004307
CU2492   CU        0.156096    0.721943    0.401162     0.006663
NI2493   NI        0.155568    0.752327    0.369736     0.004307
CU2494   CU        0.186702    0.721314    0.370418     0.006663
NI2495   NI        0.189385    0.751510    0.402771     0.004307
NI2496   NI        0.219551    0.722177    0.402080     0.004307
NI2497   NI        0.222023    0.750728    0.369526     0.004307
NI2498   NI        0.255091    0.723436    0.371363     0.004307
NI2499   NI        0.255001    0.753071    0.404233     0.004307
NI2500   NI        0.300494    0.706051    0.406156     0.004307
CU2501   CU        0.289133    0.755126    0.372367     0.006663
NI2502   NI        0.334882    0.707431    0.374528     0.004307
CU2503   CU        0.326199    0.759439    0.402541     0.006663
CU2504   CU        0.368046    0.707456    0.406544     0.006663
NI2505   NI        0.373713    0.734382    0.371984     0.004307
NI2506   NI        0.404183    0.705863    0.375426     0.004307
NI2507   NI        0.403248    0.737817    0.404314     0.004307
NI2508   NI        0.437082    0.705066    0.406293     0.004307
NI2509   NI        0.436180    0.736823    0.372256     0.004307
CU2510   CU        0.468221    0.706543    0.374303     0.006663
CU2511   CU        0.468016    0.736218    0.404612     0.006663
NI2512   NI        0.501285    0.705744    0.405313     0.004307
CU2513   CU        0.500967    0.735805    0.371364     0.006663
CU2514   CU        0.534381    0.709062    0.372293     0.006663
NI2515   NI        0.539271    0.759803    0.405267     0.004307
NI2516   NI        0.566641    0.706782    0.405047     0.004307
NI2517   NI        0.572232    0.759471    0.370300     0.004307
NI2518   NI        0.600882    0.708429    0.375410     0.004307
NI2519   NI        0.608316    0.758435    0.400027     0.004307
NI2520   NI        0.633750    0.706909    0.405786     0.004307
NI2521   NI        0.640257    0.758704    0.368106     0.004307
NI2522   NI        0.666165    0.708394    0.375316     0.004307
NI2523   NI        0.674787    0.756289    0.404141     0.004307
NI2524   NI        0.717099    0.722090    0.403077     0.004307
NI2525   NI        0.696637    0.742736    0.372755     0.004307
NI2526   NI        0.752032    0.720675    0.371648     0.004307
NI2527   NI        0.747924    0.751501    0.402329     0.004307
NI2528   NI        0.782526    0.720839    0.403997     0.004307
NI2529   NI        0.781764    0.751622    0.371117     0.004307
NI2530   NI        0.814299    0.718897    0.372270     0.004307
NI2531   NI        0.811858    0.751388    0.405244     0.004307
NI2532   NI        0.845273    0.720957    0.404343     0.004307
NI2533   NI        0.158404    0.780691    0.404283     0.004307
NI2534   NI        0.191182    0.781525    0.369812     0.004307
NI2535   NI        0.194444    0.813700    0.402618     0.004307
CU2536   CU        0.223573    0.783248    0.405633     0.006663
NI2537   NI        0.225488    0.813442    0.372240     0.004307
NI2538   NI        0.257988    0.783925    0.372084     0.004307
NI2539   NI        0.258198    0.813956    0.404061     0.004307
NI2540   NI        0.291025    0.785636    0.404126     0.004307
NI2541   NI        0.291778    0.816997    0.371499     0.004307
NI2542   NI        0.324724    0.787652    0.371076     0.004307
NI2543   NI        0.324567    0.814914    0.402796     0.004307
CU2544   CU        0.358582    0.786977    0.405672     0.006663
NI2545   NI        0.360169    0.817149    0.371781     0.004307
NI2546   NI        0.405314    0.766880    0.369024     0.004307
NI2547   NI        0.396291    0.817046    0.401615     0.004307
NI2548   NI        0.437429    0.768254    0.403620     0.004307
NI2549   NI        0.433178    0.818361    0.367724     0.004307
CU2550   CU        0.466870    0.788473    0.371476     0.006663
NI2551   NI        0.468022    0.818446    0.405472     0.004307
CU2552   CU        0.503319    0.789470    0.403412     0.006663
CU2553   CU        0.503797    0.817360    0.372941     0.006663
CU2554   CU        0.537618    0.787045    0.372668     0.006663
NI2555   NI        0.537359    0.817427    0.404873     0.004307
CU2556   CU        0.571933    0.786577    0.403630     0.006663
NI2557   NI        0.573025    0.812016    0.368869     0.004307
NI2558   NI        0.607224    0.785562    0.368048     0.004307
NI2559   NI        0.606632    0.811429    0.402513     0.004307
NI2560   NI        0.642093    0.786083    0.401579     0.004307
NI2561   NI        0.644213    0.813769    0.367831     0.004307
NI2562   NI        0.678971    0.783609    0.368203     0.004307
NI2563   NI        0.679455    0.813047    0.400918     0.004307
NI2564   NI        0.711856    0.782658    0.404093     0.004307
NI2565   NI        0.712297    0.812400    0.369165     0.004307
NI2566   NI        0.745482    0.780841    0.371605     0.004307
NI2567   NI        0.745949    0.810749    0.405639     0.004307
NI2568   NI        0.778827    0.781136    0.402680     0.004307
CU2569   CU        0.257892    0.843540    0.371633     0.006663
NI2570   NI        0.292894    0.844340    0.403196     0.004307
NI2571   NI        0.327398    0.846343    0.372147     0.004307
NI2572   NI        0.329023    0.875697    0.404278     0.004307
NI2573   NI        0.359380    0.844452    0.403578     0.004307
NI2574   NI        0.363099    0.870359    0.367181     0.004307
NI2575   NI        0.397035    0.843065    0.368159     0.004307
NI2576   NI        0.390963    0.903786    0.435325     0.004307
NI2577   NI        0.432365    0.843625    0.403268     0.004307
NI2578   NI        0.432957    0.869528    0.367458     0.004307
CU2579   CU        0.470586    0.843456    0.369842     0.006663
NI2580   NI        0.462416    0.874964    0.404204     0.004307
CU2581   CU        0.503244    0.848040    0.404094     0.006663
NI2582   NI        0.503355    0.872079    0.369303     0.004307
CU2583   CU        0.538343    0.845897    0.371298     0.006663
NI2584   NI        0.541450    0.873743    0.403317     0.004307
CU2585   CU        0.573954    0.841779    0.401417     0.006663
NI2586   NI        0.577746    0.869998    0.372019     0.004307
NI2587   NI        0.608932    0.840907    0.370141     0.004307
NI2588   NI        0.606019    0.870066    0.405214     0.004307
NI2589   NI        0.638616    0.873149    0.434158     0.004307
NI2590   NI        0.676251    0.843598    0.368657     0.004307
CU2591   CU        0.326576    0.043516    0.469919     0.006663
NI2592   NI        0.361995    0.042940    0.441083     0.004307
NI2593   NI        0.395433    0.048929    0.472192     0.004307
NI2594   NI        0.434042    0.037298    0.430918     0.004307
NI2595   NI        0.472758    0.039118    0.463805     0.004307
CU2596   CU        0.506466    0.036293    0.435115     0.006663
NI2597   NI        0.540728    0.039373    0.465999     0.004307
NI2598   NI        0.575378    0.046181    0.431843     0.004307
NI2599   NI        0.641839    0.000625    0.466296     0.004307
NI2600   NI        0.187057    0.104120    0.469660     0.004307
NI2601   NI        0.222360    0.103462    0.434744     0.004307
CU2602   CU        0.259269    0.071726    0.433907     0.006663
NI2603   NI        0.255174    0.101642    0.470727     0.004307
CU2604   CU        0.288700    0.068996    0.471193     0.006663
NI2605   NI        0.289822    0.098912    0.442903     0.004307
NI2606   NI        0.327150    0.073580    0.437624     0.004307
NI2607   NI        0.323704    0.098747    0.471678     0.004307
NI2608   NI        0.358113    0.074203    0.473072     0.004307
CU2609   CU        0.362926    0.099683    0.435328     0.006663
CU2610   CU        0.400292    0.066758    0.432987     0.006663
CU2611   CU        0.401579    0.093185    0.466470     0.006663
NI2612   NI        0.438415    0.065517    0.466190     0.004307
NI2613   NI        0.434180    0.095344    0.435856     0.004307
CU2614   CU        0.470853    0.069007    0.433830     0.006663
NI2615   NI        0.470068    0.097155    0.466389     0.004307
CU2616   CU        0.506309    0.067249    0.464740     0.006663
NI2617   NI        0.502907    0.097292    0.434994     0.004307
NI2618   NI        0.540026    0.069176    0.435166     0.004307
CU2619   CU        0.538547    0.095984    0.468491     0.006663
NI2620   NI        0.573004    0.067361    0.468171     0.004307
CU2621   CU        0.573214    0.096614    0.438285     0.006663
NI2622   NI        0.610869    0.074198    0.435804     0.004307
NI2623   NI        0.610577    0.101893    0.470331     0.004307
NI2624   NI        0.646251    0.073119    0.471582     0.004307
NI2625   NI        0.645223    0.101383    0.436159     0.004307
NI2626   NI        0.678988    0.072461    0.432635     0.004307
NI2627   NI        0.678588    0.101121    0.467214     0.004307
NI2628   NI        0.713274    0.103506    0.436622     0.004307
NI2629   NI        0.744805    0.103988    0.471532     0.004307
NI2630   NI        0.125654    0.165296    0.465480     0.004307
NI2631   NI        0.155262    0.133681    0.467605     0.004307
NI2632   NI        0.156423    0.164620    0.434758     0.004307
NI2633   NI        0.189884    0.132822    0.434275     0.004307
NI2634   NI        0.187878    0.163635    0.467100     0.004307
NI2635   NI        0.221889    0.133231    0.469167     0.004307
NI2636   NI        0.220059    0.161962    0.433796     0.004307
CU2637   CU        0.256860    0.130714    0.438839     0.006663
NI2638   NI        0.254057    0.160577    0.468385     0.004307
NI2639   NI        0.290863    0.129298    0.472312     0.004307
NI2640   NI        0.302956    0.177285    0.434325     0.004307
NI2641   NI        0.332442    0.131583    0.433798     0.004307
NI2642   NI        0.335226    0.169994    0.465423     0.004307
NI2643   NI        0.356911    0.128875    0.471181     0.004307
CU2644   CU        0.367586    0.175687    0.435379     0.006663
NI2645   NI        0.400952    0.125103    0.437688     0.004307
NI2646   NI        0.400321    0.177115    0.467637     0.004307
NI2647   NI        0.433590    0.124243    0.468099     0.004307
NI2648   NI        0.432902    0.177599    0.437674     0.004307
NI2649   NI        0.467022    0.124666    0.434513     0.004307
NI2650   NI        0.464567    0.155061    0.470846     0.004307
CU2651   CU        0.504525    0.125943    0.467051     0.006663
NI2652   NI        0.499430    0.175247    0.433421     0.004307
CU2653   CU        0.538433    0.125593    0.437506     0.006663
NI2654   NI        0.537121    0.155712    0.469467     0.004307
NI2655   NI        0.571271    0.126144    0.469212     0.004307
CU2656   CU        0.570652    0.155635    0.434952     0.006663
NI2657   NI        0.605675    0.127166    0.435221     0.004307
NI2658   NI        0.601652    0.169021    0.466180     0.004307
CU2659   CU        0.647823    0.131460    0.470628     0.006663
NI2660   NI        0.631758    0.174378    0.435192     0.004307
NI2661   NI        0.678979    0.133954    0.434325     0.004307
CU2662   CU        0.680439    0.162645    0.472579     0.006663
NI2663   NI        0.711705    0.132738    0.468484     0.004307
NI2664   NI        0.715705    0.163776    0.435227     0.004307
CU2665   CU        0.745710    0.132050    0.435268     0.006663
NI2666   NI        0.744348    0.164714    0.469807     0.004307
NI2667   NI        0.777328    0.134266    0.469360     0.004307
NI2668   NI        0.778570    0.163693    0.436366     0.004307
NI2669   NI        0.810298    0.164264    0.470292     0.004307
NI2670   NI        0.091981    0.193224    0.473382     0.004307
NI2671   NI        0.090072    0.227743    0.437041     0.004307
NI2672   NI        0.121298    0.196125    0.436822     0.004307
NI2673   NI        0.120798    0.226688    0.470597     0.004307
NI2674   NI        0.154183    0.195277    0.469959     0.004307
NI2675   NI        0.152338    0.226139    0.437528     0.004307
CU2676   CU        0.186301    0.195383    0.435477     0.006663
CU2677   CU        0.183169    0.225204    0.469154     0.006663
NI2678   NI        0.217561    0.193921    0.466542     0.004307
NI2679   NI        0.218999    0.222386    0.436983     0.004307
NI2680   NI        0.252451    0.191035    0.438759     0.004307
NI2681   NI        0.271629    0.240516    0.464905     0.004307
NI2682   NI        0.303332    0.207416    0.467960     0.004307
NI2683   NI        0.304945    0.240964    0.436296     0.004307
CU2684   CU        0.337122    0.206094    0.436582     0.006663
CU2685   CU        0.334960    0.238324    0.466126     0.006663
NI2686   NI        0.369351    0.208380    0.466591     0.004307
CU2687   CU        0.368751    0.238786    0.437582     0.006663
CU2688   CU        0.401265    0.206581    0.436582     0.006663
NI2689   NI        0.401406    0.234959    0.469668     0.004307
NI2690   NI        0.435033    0.207750    0.465920     0.004307
NI2691   NI        0.436250    0.235596    0.433844     0.004307
NI2692   NI        0.466947    0.205972    0.434048     0.004307
CU2693   CU        0.468367    0.238228    0.466792     0.006663
CU2694   CU        0.500511    0.204670    0.466673     0.006663
CU2695   CU        0.500425    0.235034    0.437057     0.006663
NI2696   NI        0.530775    0.204156    0.434655     0.004307
CU2697   CU        0.536114    0.235579    0.467234     0.006663
NI2698   NI        0.569963    0.204490    0.470646     0.004307
CU2699   CU        0.567217    0.235108    0.437169     0.006663
NI2700   NI        0.601150    0.205164    0.438259     0.004307
NI2701   NI        0.601599    0.236618    0.467831     0.004307
CU2702   CU        0.631816    0.203245    0.466182     0.006663
CU2703   CU        0.634172    0.236171    0.437918     0.006663
CU2704   CU        0.667016    0.207042    0.438082     0.006663
NI2705   NI        0.664953    0.234087    0.468194     0.004307
NI2706   NI        0.715511    0.195732    0.468303     0.004307
NI2707   NI        0.713390    0.225531    0.435784     0.004307
NI2708   NI        0.747327    0.195237    0.435099     0.004307
NI2709   NI        0.748483    0.226147    0.468546     0.004307
NI2710   NI        0.780010    0.194089    0.469438     0.004307
CU2711   CU        0.780282    0.227520    0.436614     0.006663
NI2712   NI        0.809167    0.194037    0.434658     0.004307
NI2713   NI        0.812139    0.228278    0.470161     0.004307
NI2714   NI        0.841429    0.195979    0.471225     0.004307
NI2715   NI        0.843734    0.224919    0.437346     0.004307
NI2716   NI        0.057721    0.260162    0.432697     0.004307
NI2717   NI        0.056692    0.290660    0.466238     0.004307
NI2718   NI        0.089828    0.260939    0.466127     0.004307
CU2719   CU        0.089556    0.291303    0.436258     0.006663
NI2720   NI        0.120016    0.260138    0.434431     0.004307
NI2721   NI        0.121928    0.291971    0.468296     0.004307
NI2722   NI        0.151549    0.258518    0.468387     0.004307
NI2723   NI        0.152376    0.289738    0.431291     0.004307
NI2724   NI        0.184312    0.256008    0.436501     0.004307
CU2725   CU        0.203566    0.302216    0.467394     0.006663
NI2726   NI        0.235808    0.271240    0.467081     0.004307
NI2727   NI        0.235975    0.302626    0.436981     0.004307
NI2728   NI        0.269433    0.272806    0.436042     0.004307
CU2729   CU        0.268547    0.303693    0.466174     0.006663
NI2730   NI        0.302659    0.270675    0.465800     0.004307
CU2731   CU        0.301703    0.302451    0.437587     0.006663
NI2732   NI        0.337304    0.271183    0.436918     0.004307
NI2733   NI        0.334787    0.300947    0.466036     0.004307
CU2734   CU        0.370174    0.267712    0.468522     0.006663
CU2735   CU        0.369026    0.300035    0.435510     0.006663
CU2736   CU        0.403469    0.266702    0.439024     0.006663
CU2737   CU        0.402282    0.300231    0.468593     0.006663
CU2738   CU        0.434083    0.267388    0.469590     0.006663
CU2739   CU        0.436456    0.298098    0.436071     0.006663
CU2740   CU        0.468754    0.265390    0.436199     0.006663
CU2741   CU        0.467707    0.297741    0.468076     0.006663
CU2742   CU        0.503252    0.268426    0.467315     0.006663
CU2743   CU        0.500353    0.298949    0.435632     0.006663
CU2744   CU        0.535596    0.265226    0.437469     0.006663
CU2745   CU        0.535690    0.299425    0.466493     0.006663
CU2746   CU        0.568705    0.269184    0.469005     0.006663
NI2747   NI        0.569347    0.299477    0.437089     0.004307
CU2748   CU        0.600925    0.269266    0.437335     0.006663
CU2749   CU        0.602443    0.299821    0.467689     0.006663
NI2750   NI        0.634418    0.266940    0.469510     0.004307
CU2751   CU        0.634411    0.300749    0.436769     0.006663
CU2752   CU        0.667597    0.266960    0.438511     0.006663
NI2753   NI        0.666781    0.301925    0.466159     0.004307
NI2754   NI        0.719029    0.258787    0.467629     0.004307
CU2755   CU        0.709846    0.285522    0.431487     0.006663
CU2756   CU        0.746954    0.258191    0.433493     0.006663
NI2757   NI        0.752512    0.289933    0.473036     0.004307
NI2758   NI        0.782042    0.258492    0.465738     0.004307
NI2759   NI        0.781695    0.290294    0.436006     0.004307
NI2760   NI        0.815198    0.259685    0.434748     0.004307
NI2761   NI        0.814063    0.290796    0.468267     0.004307
NI2762   NI        0.846178    0.260737    0.471428     0.004307
NI2763   NI        0.844882    0.290686    0.434260     0.004307
NI2764   NI        0.877349    0.260760    0.434268     0.004307
NI2765   NI        0.876252    0.290931    0.468840     0.004307
CU2766   CU        0.025354    0.327412    0.469349     0.006663
NI2767   NI        0.025388    0.358738    0.437143     0.004307
NI2768   NI        0.057768    0.324806    0.437169     0.004307
NI2769   NI        0.055779    0.358175    0.466726     0.004307
NI2770   NI        0.089610    0.325109    0.468175     0.004307
NI2771   NI        0.087823    0.358531    0.432450     0.004307
NI2772   NI        0.120130    0.323186    0.435943     0.004307
NI2773   NI        0.116430    0.359001    0.465248     0.004307
NI2774   NI        0.151255    0.324482    0.471496     0.004307
NI2775   NI        0.169498    0.364650    0.435941     0.004307
CU2776   CU        0.199296    0.331416    0.435274     0.006663
CU2777   CU        0.199479    0.361102    0.467563     0.006663
CU2778   CU        0.234015    0.332610    0.468164     0.006663
NI2779   NI        0.233036    0.361774    0.437371     0.004307
CU2780   CU        0.267053    0.334046    0.437087     0.006663
CU2781   CU        0.267800    0.364624    0.468564     0.006663
NI2782   NI        0.300321    0.333614    0.467212     0.004307
CU2783   CU        0.299932    0.364344    0.436698     0.006663
CU2784   CU        0.336036    0.332234    0.437192     0.006663
NI2785   NI        0.333371    0.366123    0.465721     0.004307
CU2786   CU        0.369033    0.332832    0.467520     0.006663
CU2787   CU        0.367826    0.363707    0.434805     0.006663
CU2788   CU        0.399903    0.329781    0.435070     0.006663
CU2789   CU        0.401986    0.362183    0.467629     0.006663
CU2790   CU        0.434854    0.331311    0.467629     0.006663
CU2791   CU        0.434662    0.363438    0.434195     0.006663
CU2792   CU        0.468266    0.329219    0.436533     0.006663
CU2793   CU        0.467376    0.363186    0.464751     0.006663
CU2794   CU        0.503279    0.331011    0.467293     0.006663
CU2795   CU        0.501604    0.364486    0.435548     0.006663
CU2796   CU        0.535400    0.328783    0.435804     0.006663
CU2797   CU        0.535320    0.360987    0.466829     0.006663
CU2798   CU        0.568217    0.330816    0.468190     0.006663
CU2799   CU        0.569060    0.362089    0.437138     0.006663
CU2800   CU        0.603194    0.330784    0.437626     0.006663
CU2801   CU        0.602211    0.362877    0.468908     0.006663
CU2802   CU        0.634563    0.332840    0.469071     0.006663
CU2803   CU        0.635917    0.363031    0.437679     0.006663
CU2804   CU        0.667290    0.333894    0.436423     0.006663
CU2805   CU        0.669510    0.363788    0.469330     0.006663
NI2806   NI        0.699908    0.333420    0.466275     0.004307
CU2807   CU        0.701355    0.362721    0.437004     0.006663
CU2808   CU        0.743216    0.327960    0.459140     0.006663
CU2809   CU        0.732058    0.365942    0.469512     0.006663
NI2810   NI        0.786251    0.326374    0.470113     0.004307
NI2811   NI        0.786282    0.360185    0.432236     0.004307
NI2812   NI        0.814486    0.324810    0.433972     0.004307
NI2813   NI        0.814786    0.360240    0.467116     0.004307
NI2814   NI        0.847807    0.324496    0.468407     0.004307
NI2815   NI        0.845088    0.355338    0.434140     0.004307
NI2816   NI        0.875141    0.323594    0.435757     0.004307
NI2817   NI        0.877330    0.357858    0.467324     0.004307
NI2818   NI        0.908431    0.325664    0.466798     0.004307
NI2819   NI        0.909319    0.355930    0.433627     0.004307
NI2820   NI        0.024830    0.389995    0.465180     0.004307
NI2821   NI        0.025378    0.424934    0.433682     0.004307
NI2822   NI        0.055125    0.391898    0.434267     0.004307
CU2823   CU        0.052226    0.423004    0.467728     0.006663
CU2824   CU        0.084284    0.391428    0.466062     0.006663
CU2825   CU        0.086861    0.424429    0.432411     0.006663
NI2826   NI        0.118089    0.394388    0.434761     0.004307
NI2827   NI        0.116888    0.425452    0.467749     0.004307
CU2828   CU        0.169632    0.393808    0.466347     0.006663
NI2829   NI        0.149834    0.425122    0.435920     0.004307
CU2830   CU        0.201024    0.392767    0.436716     0.006663
CU2831   CU        0.200664    0.426424    0.466441     0.006663
CU2832   CU        0.233905    0.394397    0.467519     0.006663
CU2833   CU        0.233297    0.424881    0.435181     0.006663
CU2834   CU        0.266969    0.394898    0.436517     0.006663
CU2835   CU        0.267257    0.426589    0.467196     0.006663
CU2836   CU        0.299789    0.395216    0.467999     0.006663
CU2837   CU        0.299284    0.426750    0.436017     0.006663
CU2838   CU        0.333375    0.394959    0.435550     0.006663
NI2839   NI        0.332907    0.426542    0.466902     0.004307
CU2840   CU        0.366657    0.396857    0.465232     0.006663
CU2841   CU        0.366705    0.425441    0.435312     0.006663
CU2842   CU        0.401406    0.395571    0.436880     0.006663
CU2843   CU        0.402003    0.427643    0.467314     0.006663
CU2844   CU        0.436079    0.394828    0.463813     0.006663
CU2845   CU        0.433905    0.425728    0.433607     0.006663
CU2846   CU        0.468489    0.393469    0.432509     0.006663
CU2847   CU        0.470176    0.425657    0.466707     0.006663
CU2848   CU        0.502222    0.394536    0.467870     0.006663
CU2849   CU        0.501805    0.426037    0.433199     0.006663
CU2850   CU        0.535194    0.396511    0.435225     0.006663
NI2851   NI        0.534731    0.425969    0.467029     0.004307
CU2852   CU        0.566795    0.393350    0.468334     0.006663
CU2853   CU        0.569401    0.424644    0.435173     0.006663
CU2854   CU        0.601557    0.394885    0.433876     0.006663
CU2855   CU        0.601433    0.423817    0.464961     0.006663
CU2856   CU        0.637177    0.393671    0.467097     0.006663
CU2857   CU        0.637489    0.425218    0.433451     0.006663
CU2858   CU        0.669134    0.394060    0.438452     0.006663
CU2859   CU        0.669662    0.428380    0.469144     0.006663
NI2860   NI        0.701248    0.395574    0.469163     0.004307
CU2861   CU        0.701535    0.426297    0.437479     0.006663
NI2862   NI        0.734863    0.396135    0.436918     0.004307
CU2863   CU        0.736117    0.424905    0.469365     0.006663
CU2864   CU        0.767184    0.395375    0.465967     0.006663
CU2865   CU        0.765823    0.426353    0.435816     0.006663
NI2866   NI        0.819415    0.390408    0.434681     0.004307
CU2867   CU        0.820907    0.427052    0.466037     0.006663
NI2868   NI        0.848000    0.392716    0.468337     0.004307
NI2869   NI        0.851252    0.424585    0.436303     0.004307
CU2870   CU        0.879257    0.388461    0.438011     0.006663
CU2871   CU        0.881168    0.422630    0.471767     0.006663
CU2872   CU        0.913504    0.389820    0.468518     0.006663
NI2873   NI        0.911687    0.421741    0.439817     0.004307
NI2874   NI        0.024206    0.457333    0.465146     0.004307
CU2875   CU        0.025290    0.490462    0.433200     0.006663
CU2876   CU        0.055158    0.456065    0.434193     0.006663
NI2877   NI        0.054238    0.491457    0.467808     0.004307
NI2878   NI        0.085465    0.458044    0.467467     0.004307
CU2879   CU        0.084267    0.490849    0.434476     0.006663
CU2880   CU        0.117270    0.455866    0.436407     0.006663
NI2881   NI        0.117833    0.489908    0.468009     0.004307
CU2882   CU        0.169553    0.456271    0.465986     0.006663
NI2883   NI        0.152588    0.490540    0.430314     0.004307
NI2884   NI        0.203501    0.458340    0.435868     0.004307
NI2885   NI        0.202213    0.487171    0.467137     0.004307
NI2886   NI        0.233392    0.457967    0.468563     0.004307
NI2887   NI        0.236169    0.487340    0.438136     0.004307
CU2888   CU        0.266595    0.455562    0.436131     0.006663
CU2889   CU        0.266369    0.488533    0.470239     0.006663
CU2890   CU        0.298842    0.458121    0.468528     0.006663
CU2891   CU        0.299037    0.487715    0.435135     0.006663
CU2892   CU        0.333828    0.456102    0.436147     0.006663
NI2893   NI        0.333391    0.489253    0.468126     0.004307
CU2894   CU        0.370546    0.457351    0.465986     0.006663
NI2895   NI        0.368614    0.488678    0.436294     0.004307
CU2896   CU        0.400339    0.455201    0.435141     0.006663
CU2897   CU        0.402437    0.488957    0.466926     0.006663
CU2898   CU        0.436587    0.455017    0.468113     0.006663
CU2899   CU        0.435162    0.488206    0.436690     0.006663
NI2900   NI        0.468877    0.456225    0.436438     0.004307
CU2901   CU        0.469754    0.490388    0.465738     0.006663
CU2902   CU        0.503601    0.457801    0.464871     0.006663
CU2903   CU        0.501456    0.490382    0.436450     0.006663
CU2904   CU        0.536230    0.459031    0.435800     0.006663
CU2905   CU        0.536241    0.488530    0.466568     0.006663
CU2906   CU        0.570137    0.456410    0.464924     0.006663
CU2907   CU        0.570013    0.491522    0.436056     0.006663
CU2908   CU        0.603890    0.456639    0.433952     0.006663
CU2909   CU        0.602119    0.490411    0.465967     0.006663
CU2910   CU        0.636043    0.458405    0.465596     0.006663
CU2911   CU        0.634962    0.490555    0.435289     0.006663
CU2912   CU        0.668687    0.458416    0.437518     0.006663
CU2913   CU        0.669416    0.487784    0.467220     0.006663
CU2914   CU        0.703225    0.457571    0.469626     0.006663
NI2915   NI        0.702682    0.484656    0.436058     0.004307
CU2916   CU        0.734329    0.456462    0.438506     0.006663
CU2917   CU        0.733614    0.489061    0.468944     0.006663
CU2918   CU        0.768885    0.454915    0.466644     0.006663
NI2919   NI        0.765898    0.487807    0.435850     0.004307
NI2920   NI        0.822998    0.455901    0.436176     0.004307
NI2921   NI        0.799432    0.484475    0.462639     0.004307
CU2922   CU        0.854342    0.456739    0.466716     0.006663
NI2923   NI        0.853261    0.488892    0.434341     0.004307
NI2924   NI        0.886307    0.457263    0.436383     0.004307
NI2925   NI        0.881153    0.490931    0.470085     0.004307
NI2926   NI        0.911100    0.454512    0.473089     0.004307
NI2927   NI        0.914873    0.493112    0.434889     0.004307
CU2928   CU        0.025349    0.525452    0.469321     0.006663
NI2929   NI        0.029181    0.559909    0.434743     0.004307
NI2930   NI        0.054845    0.524613    0.437042     0.004307
NI2931   NI        0.057015    0.557557    0.468999     0.004307
CU2932   CU        0.086741    0.522396    0.466621     0.006663
NI2933   NI        0.089659    0.555713    0.435010     0.004307
NI2934   NI        0.122128    0.525673    0.435611     0.004307
NI2935   NI        0.119791    0.555067    0.468057     0.004307
NI2936   NI        0.148554    0.525426    0.470861     0.004307
CU2937   CU        0.154852    0.557393    0.434881     0.006663
NI2938   NI        0.205964    0.518644    0.436062     0.004307
NI2939   NI        0.178619    0.558411    0.471222     0.004307
CU2940   CU        0.235429    0.522802    0.466696     0.006663
CU2941   CU        0.234073    0.553034    0.437200     0.006663
CU2942   CU        0.267160    0.520671    0.436595     0.006663
CU2943   CU        0.267263    0.554232    0.465756     0.006663
CU2944   CU        0.300030    0.519962    0.468965     0.006663
CU2945   CU        0.300225    0.551953    0.437940     0.006663
NI2946   NI        0.332343    0.518896    0.435667     0.004307
CU2947   CU        0.334951    0.551680    0.467884     0.006663
NI2948   NI        0.367359    0.521155    0.465948     0.004307
CU2949   CU        0.368256    0.551320    0.435499     0.006663
CU2950   CU        0.401902    0.519993    0.435813     0.006663
CU2951   CU        0.402123    0.553811    0.471194     0.006663
CU2952   CU        0.435338    0.519223    0.468800     0.006663
CU2953   CU        0.435845    0.552493    0.436214     0.006663
CU2954   CU        0.469355    0.523244    0.436829     0.006663
CU2955   CU        0.468583    0.552461    0.469908     0.006663
CU2956   CU        0.504006    0.519842    0.467489     0.006663
CU2957   CU        0.500088    0.550768    0.438652     0.006663
CU2958   CU        0.535644    0.521521    0.435891     0.006663
CU2959   CU        0.534478    0.555879    0.468053     0.006663
CU2960   CU        0.567083    0.522695    0.467170     0.006663
CU2961   CU        0.568787    0.554589    0.437243     0.006663
CU2962   CU        0.601571    0.522775    0.437037     0.006663
CU2963   CU        0.599894    0.554061    0.466902     0.006663
CU2964   CU        0.636196    0.519664    0.466417     0.006663
CU2965   CU        0.635361    0.550850    0.435121     0.006663
CU2966   CU        0.668469    0.519839    0.435332     0.006663
CU2967   CU        0.669174    0.554192    0.468506     0.006663
CU2968   CU        0.703268    0.521225    0.467578     0.006663
NI2969   NI        0.701681    0.551111    0.437607     0.004307
NI2970   NI        0.735369    0.517383    0.435179     0.004307
NI2971   NI        0.736176    0.552577    0.468283     0.004307
CU2972   CU        0.768940    0.518361    0.469311     0.006663
NI2973   NI        0.765405    0.550200    0.437774     0.004307
NI2974   NI        0.819726    0.521135    0.434166     0.004307
NI2975   NI        0.822241    0.555219    0.470660     0.004307
NI2976   NI        0.849576    0.521365    0.469692     0.004307
NI2977   NI        0.850648    0.554171    0.436795     0.004307
CU2978   CU        0.881173    0.523848    0.436799     0.006663
NI2979   NI        0.878778    0.555051    0.471855     0.004307
NI2980   NI        0.911850    0.522843    0.470384     0.004307
NI2981   NI        0.911893    0.556979    0.438021     0.004307
CU2982   CU        0.028171    0.588862    0.468852     0.006663
CU2983   CU        0.058643    0.591080    0.436077     0.006663
NI2984   NI        0.060345    0.622921    0.468020     0.004307
NI2985   NI        0.089532    0.587772    0.470500     0.004307
NI2986   NI        0.090159    0.623584    0.435716     0.004307
NI2987   NI        0.120927    0.588660    0.436476     0.004307
NI2988   NI        0.120245    0.623482    0.466473     0.004307
CU2989   CU        0.148172    0.591211    0.470243     0.006663
CU2990   CU        0.149274    0.621084    0.435827     0.006663
NI2991   NI        0.198048    0.577401    0.437020     0.004307
NI2992   NI        0.202832    0.612328    0.466013     0.004307
CU2993   CU        0.234000    0.584291    0.466827     0.006663
CU2994   CU        0.232713    0.612996    0.434944     0.006663
CU2995   CU        0.267248    0.581904    0.434059     0.006663
CU2996   CU        0.266181    0.614654    0.469119     0.006663
NI2997   NI        0.299641    0.584304    0.469643     0.004307
CU2998   CU        0.301376    0.611133    0.436275     0.006663
CU2999   CU        0.334385    0.582867    0.435847     0.006663
CU3000   CU        0.333638    0.615468    0.470413     0.006663
CU3001   CU        0.366343    0.582022    0.470259     0.006663
CU3002   CU        0.368759    0.613583    0.439264     0.006663
CU3003   CU        0.400467    0.583015    0.435285     0.006663
CU3004   CU        0.401750    0.613193    0.470801     0.006663
CU3005   CU        0.435228    0.583434    0.469765     0.006663
CU3006   CU        0.435877    0.614576    0.438443     0.006663
CU3007   CU        0.468924    0.582566    0.437826     0.006663
CU3008   CU        0.467072    0.615941    0.471265     0.006663
CU3009   CU        0.501988    0.584709    0.469454     0.006663
CU3010   CU        0.503627    0.614901    0.436545     0.006663
CU3011   CU        0.534362    0.584701    0.434982     0.006663
CU3012   CU        0.535239    0.613854    0.469058     0.006663
NI3013   NI        0.569043    0.583483    0.468415     0.004307
CU3014   CU        0.566139    0.615281    0.436298     0.006663
CU3015   CU        0.600972    0.586069    0.436171     0.006663
CU3016   CU        0.601673    0.616360    0.467079     0.006663
CU3017   CU        0.633251    0.585120    0.467656     0.006663
NI3018   NI        0.633629    0.616545    0.437322     0.004307
CU3019   CU        0.669282    0.582804    0.436532     0.006663
NI3020   NI        0.668257    0.614607    0.469293     0.004307
CU3021   CU        0.703982    0.583756    0.469563     0.006663
NI3022   NI        0.700090    0.613465    0.437169     0.004307
NI3023   NI        0.734278    0.583670    0.435034     0.004307
NI3024   NI        0.737803    0.614807    0.468034     0.004307
NI3025   NI        0.769339    0.583675    0.468558     0.004307
NI3026   NI        0.791069    0.619100    0.438279     0.004307
NI3027   NI        0.818432    0.587251    0.434130     0.004307
NI3028   NI        0.813258    0.625703    0.474189     0.004307
NI3029   NI        0.847712    0.590785    0.473382     0.004307
NI3030   NI        0.847819    0.621554    0.438797     0.004307
NI3031   NI        0.879582    0.588018    0.439586     0.004307
NI3032   NI        0.878260    0.620161    0.471664     0.004307
NI3033   NI        0.908439    0.586933    0.471581     0.004307
NI3034   NI        0.056194    0.653039    0.437416     0.004307
NI3035   NI        0.089878    0.654831    0.468269     0.004307
NI3036   NI        0.090617    0.685994    0.437157     0.004307
CU3037   CU        0.121476    0.655071    0.436268     0.006663
NI3038   NI        0.121798    0.686761    0.469986     0.004307
CU3039   CU        0.151996    0.653263    0.469224     0.006663
CU3040   CU        0.153754    0.690408    0.435117     0.006663
NI3041   NI        0.204390    0.647161    0.434348     0.004307
NI3042   NI        0.187139    0.690085    0.469877     0.004307
NI3043   NI        0.233353    0.645291    0.466519     0.004307
NI3044   NI        0.218036    0.691209    0.434543     0.004307
NI3045   NI        0.269787    0.646769    0.438175     0.004307
CU3046   CU        0.268498    0.675647    0.467961     0.006663
CU3047   CU        0.300795    0.644783    0.470693     0.006663
CU3048   CU        0.299485    0.676650    0.437463     0.006663
CU3049   CU        0.333078    0.643085    0.436840     0.006663
CU3050   CU        0.335493    0.675672    0.468120     0.006663
CU3051   CU        0.367524    0.645184    0.469879     0.006663
NI3052   NI        0.366909    0.674735    0.437530     0.004307
NI3053   NI        0.401653    0.643261    0.438264     0.004307
CU3054   CU        0.401073    0.675405    0.468576     0.006663
CU3055   CU        0.434696    0.645831    0.470118     0.006663
NI3056   NI        0.432928    0.675645    0.436115     0.004307
CU3057   CU        0.466695    0.645839    0.438434     0.006663
CU3058   CU        0.467999    0.676331    0.468999     0.006663
CU3059   CU        0.501397    0.646073    0.468464     0.006663
CU3060   CU        0.501383    0.675813    0.437058     0.006663
NI3061   NI        0.535548    0.646618    0.436964     0.004307
CU3062   CU        0.532807    0.677594    0.469022     0.006663
CU3063   CU        0.566613    0.646476    0.468254     0.006663
CU3064   CU        0.569254    0.676786    0.435294     0.006663
CU3065   CU        0.602195    0.646513    0.436428     0.006663
NI3066   NI        0.598880    0.677358    0.467148     0.004307
NI3067   NI        0.634984    0.647568    0.469017     0.004307
NI3068   NI        0.633713    0.675799    0.435439     0.004307
NI3069   NI        0.669629    0.644078    0.437260     0.004307
NI3070   NI        0.670886    0.674467    0.468443     0.004307
NI3071   NI        0.700869    0.644216    0.467022     0.004307
NI3072   NI        0.698681    0.675253    0.436166     0.004307
NI3073   NI        0.734248    0.643031    0.437126     0.004307
NI3074   NI        0.732619    0.675598    0.466243     0.004307
NI3075   NI        0.771276    0.644230    0.466985     0.004307
NI3076   NI        0.783200    0.692485    0.435279     0.004307
CU3077   CU        0.813205    0.656718    0.437204     0.006663
NI3078   NI        0.813671    0.686328    0.469972     0.004307
CU3079   CU        0.844374    0.654710    0.470533     0.006663
NI3080   NI        0.847465    0.686938    0.439348     0.004307
NI3081   NI        0.876915    0.653957    0.438568     0.004307
NI3082   NI        0.092653    0.718190    0.466900     0.004307
NI3083   NI        0.122956    0.719922    0.435631     0.004307
NI3084   NI        0.122353    0.749993    0.465143     0.004307
NI3085   NI        0.155752    0.721706    0.468406     0.004307
NI3086   NI        0.155905    0.751587    0.435833     0.004307
NI3087   NI        0.188566    0.723650    0.435176     0.004307
NI3088   NI        0.189659    0.752213    0.469342     0.004307
CU3089   CU        0.218664    0.719127    0.468803     0.006663
NI3090   NI        0.222142    0.751474    0.436039     0.004307
NI3091   NI        0.266900    0.707924    0.436318     0.004307
NI3092   NI        0.255821    0.753156    0.468676     0.004307
NI3093   NI        0.301331    0.707853    0.465181     0.004307
NI3094   NI        0.286696    0.755864    0.435925     0.004307
NI3095   NI        0.334645    0.707143    0.437982     0.004307
NI3096   NI        0.338132    0.735463    0.467907     0.004307
NI3097   NI        0.370082    0.705550    0.467215     0.004307
NI3098   NI        0.370991    0.739452    0.436236     0.004307
CU3099   CU        0.400872    0.708047    0.436070     0.006663
NI3100   NI        0.404701    0.736698    0.466311     0.004307
NI3101   NI        0.434525    0.706005    0.467925     0.004307
NI3102   NI        0.437223    0.737901    0.437111     0.004307
NI3103   NI        0.467449    0.705909    0.437439     0.004307
NI3104   NI        0.467931    0.737234    0.467177     0.004307
CU3105   CU        0.502131    0.707864    0.467763     0.006663
NI3106   NI        0.498962    0.736653    0.435234     0.004307
CU3107   CU        0.534491    0.708372    0.437381     0.006663
CU3108   CU        0.538665    0.757145    0.472382     0.006663
NI3109   NI        0.566351    0.707798    0.465921     0.004307
NI3110   NI        0.571226    0.758921    0.436017     0.004307
NI3111   NI        0.602344    0.707648    0.434183     0.004307
NI3112   NI        0.609185    0.756713    0.469441     0.004307
NI3113   NI        0.640469    0.725365    0.472339     0.004307
NI3114   NI        0.645528    0.753165    0.439574     0.004307
NI3115   NI        0.665516    0.706841    0.440317     0.004307
NI3116   NI        0.677798    0.751184    0.470806     0.004307
NI3117   NI        0.714626    0.723822    0.467869     0.004307
CU3118   CU        0.713448    0.751176    0.437060     0.006663
NI3119   NI        0.747670    0.722763    0.435398     0.004307
NI3120   NI        0.746100    0.750531    0.469481     0.004307
NI3121   NI        0.779800    0.721468    0.469905     0.004307
NI3122   NI        0.781253    0.750868    0.437126     0.004307
NI3123   NI        0.814334    0.721124    0.438951     0.004307
NI3124   NI        0.810341    0.751026    0.470560     0.004307
NI3125   NI        0.843824    0.719900    0.473126     0.004307
CU3126   CU        0.154143    0.780277    0.467226     0.006663
NI3127   NI        0.189605    0.782630    0.436024     0.004307
NI3128   NI        0.187696    0.810547    0.468379     0.004307
NI3129   NI        0.223371    0.781587    0.469186     0.004307
NI3130   NI        0.223820    0.812365    0.436474     0.004307
NI3131   NI        0.256318    0.784257    0.437419     0.004307
NI3132   NI        0.255922    0.813506    0.471622     0.004307
NI3133   NI        0.289431    0.783815    0.469510     0.004307
NI3134   NI        0.289471    0.813658    0.438384     0.004307
NI3135   NI        0.325077    0.786751    0.434473     0.004307
NI3136   NI        0.323443    0.813338    0.470885     0.004307
NI3137   NI        0.361924    0.787385    0.471898     0.004307
NI3138   NI        0.360244    0.815651    0.436352     0.004307
NI3139   NI        0.407747    0.766902    0.435695     0.004307
CU3140   CU        0.398395    0.816882    0.469642     0.006663
NI3141   NI        0.433335    0.788167    0.467311     0.004307
CU3142   CU        0.433101    0.819028    0.435493     0.006663
NI3143   NI        0.468288    0.789186    0.435099     0.004307
NI3144   NI        0.468420    0.818013    0.466886     0.004307
NI3145   NI        0.503714    0.788794    0.468017     0.004307
NI3146   NI        0.501719    0.818351    0.436800     0.004307
CU3147   CU        0.537545    0.788481    0.436061     0.006663
NI3148   NI        0.538694    0.817252    0.469129     0.004307
NI3149   NI        0.573227    0.785663    0.469414     0.004307
CU3150   CU        0.572893    0.815549    0.434340     0.006663
NI3151   NI        0.605756    0.784219    0.437879     0.004307
NI3152   NI        0.608343    0.813939    0.470064     0.004307
NI3153   NI        0.642491    0.783521    0.468487     0.004307
NI3154   NI        0.643625    0.812292    0.436954     0.004307
NI3155   NI        0.677155    0.784079    0.434536     0.004307
CU3156   CU        0.678456    0.815067    0.467846     0.006663
NI3157   NI        0.711819    0.781797    0.467689     0.004307
NI3158   NI        0.711427    0.811253    0.435389     0.004307
CU3159   CU        0.745231    0.781371    0.435723     0.006663
NI3160   NI        0.740057    0.813205    0.470630     0.004307
NI3161   NI        0.775443    0.782291    0.467778     0.004307
NI3162   NI        0.257689    0.842938    0.437202     0.004307
CU3163   CU        0.289821    0.843578    0.472153     0.006663
NI3164   NI        0.324323    0.843116    0.434878     0.004307
NI3165   NI        0.362394    0.902717    0.465508     0.004307
NI3166   NI        0.362573    0.843265    0.467512     0.004307
CU3167   CU        0.360396    0.871193    0.435207     0.006663
NI3168   NI        0.394418    0.842567    0.436952     0.004307
NI3169   NI        0.395719    0.871702    0.470159     0.004307
NI3170   NI        0.432233    0.845620    0.469913     0.004307
NI3171   NI        0.428832    0.873550    0.437649     0.004307
CU3172   CU        0.469202    0.850013    0.435833     0.006663
NI3173   NI        0.466034    0.875587    0.469898     0.004307
NI3174   NI        0.505245    0.847346    0.469664     0.004307
NI3175   NI        0.505049    0.874601    0.435565     0.004307
NI3176   NI        0.538198    0.845583    0.436302     0.004307
NI3177   NI        0.542002    0.873931    0.469629     0.004307
NI3178   NI        0.574568    0.843019    0.467389     0.004307
CU3179   CU        0.574112    0.872624    0.438636     0.006663
NI3180   NI        0.608729    0.841244    0.437556     0.004307
NI3181   NI        0.611172    0.872116    0.469156     0.004307
NI3182   NI        0.643787    0.843054    0.467664     0.004307
NI3183   NI        0.676460    0.844748    0.437575     0.004307
NI3184   NI        0.364995    0.046120    0.503069     0.004307
NI3185   NI        0.397617    0.044989    0.538936     0.004307
CU3186   CU        0.430887    0.050526    0.506217     0.006663
NI3187   NI        0.463639    0.050428    0.538167     0.004307
NI3188   NI        0.506125    0.038152    0.497059     0.004307
NI3189   NI        0.543051    0.038449    0.529923     0.004307
NI3190   NI        0.576965    0.042583    0.501359     0.004307
CU3191   CU        0.222167    0.102178    0.500608     0.006663
NI3192   NI        0.255925    0.072423    0.501335     0.004307
NI3193   NI        0.257036    0.100842    0.533153     0.004307
NI3194   NI        0.289658    0.073349    0.535808     0.004307
CU3195   CU        0.291486    0.100962    0.503457     0.006663
NI3196   NI        0.325057    0.072020    0.505569     0.004307
NI3197   NI        0.323518    0.101061    0.535584     0.004307
NI3198   NI        0.360629    0.071420    0.536323     0.004307
NI3199   NI        0.358973    0.103133    0.505682     0.004307
NI3200   NI        0.394058    0.075766    0.506812     0.004307
CU3201   CU        0.394069    0.102093    0.539508     0.006663
NI3202   NI        0.428226    0.075471    0.540422     0.004307
NI3203   NI        0.435522    0.090915    0.499367     0.004307
CU3204   CU        0.473701    0.064522    0.499955     0.006663
NI3205   NI        0.468792    0.092649    0.530371     0.004307
NI3206   NI        0.505963    0.064650    0.530292     0.004307
NI3207   NI        0.503780    0.094733    0.498070     0.004307
NI3208   NI        0.539620    0.066419    0.498841     0.004307
NI3209   NI        0.536670    0.097373    0.529767     0.004307
NI3210   NI        0.573834    0.071832    0.534307     0.004307
NI3211   NI        0.570817    0.097220    0.500268     0.004307
NI3212   NI        0.607893    0.072223    0.502414     0.004307
NI3213   NI        0.608571    0.097485    0.537273     0.004307
NI3214   NI        0.644803    0.072544    0.533809     0.004307
CU3215   CU        0.642496    0.102273    0.500324     0.006663
NI3216   NI        0.678220    0.075700    0.503850     0.004307
CU3217   CU        0.679163    0.103559    0.538441     0.006663
CU3218   CU        0.712412    0.104340    0.500276     0.006663
NI3219   NI        0.122376    0.166186    0.536276     0.004307
NI3220   NI        0.155657    0.135332    0.534710     0.004307
NI3221   NI        0.154989    0.164040    0.502799     0.004307
NI3222   NI        0.185638    0.133932    0.500716     0.004307
NI3223   NI        0.190260    0.163164    0.532324     0.004307
CU3224   CU        0.225155    0.132824    0.533219     0.006663
NI3225   NI        0.222304    0.162977    0.501850     0.004307
CU3226   CU        0.256593    0.130722    0.502147     0.006663
CU3227   CU        0.259841    0.162304    0.536759     0.006663
CU3228   CU        0.292025    0.131972    0.536113     0.006663
NI3229   NI        0.290343    0.159566    0.504082     0.004307
NI3230   NI        0.323942    0.129972    0.503786     0.004307
CU3231   CU        0.325596    0.160004    0.535019     0.006663
CU3232   CU        0.359424    0.130979    0.539048     0.006663
NI3233   NI        0.357225    0.158654    0.501927     0.004307
NI3234   NI        0.404094    0.119408    0.501466     0.004307
NI3235   NI        0.406734    0.173374    0.535174     0.004307
NI3236   NI        0.435301    0.122603    0.533272     0.004307
NI3237   NI        0.434385    0.154020    0.504195     0.004307
NI3238   NI        0.467211    0.125367    0.500950     0.004307
NI3239   NI        0.469486    0.154013    0.532514     0.004307
NI3240   NI        0.501070    0.123068    0.531776     0.004307
NI3241   NI        0.500671    0.155210    0.499865     0.004307
CU3242   CU        0.536010    0.125415    0.497915     0.006663
NI3243   NI        0.540969    0.169444    0.543415     0.004307
NI3244   NI        0.575738    0.129629    0.539090     0.004307
NI3245   NI        0.566115    0.175054    0.500617     0.004307
NI3246   NI        0.609126    0.129228    0.508039     0.004307
NI3247   NI        0.614037    0.160636    0.536166     0.004307
CU3248   CU        0.644534    0.130000    0.535393     0.006663
CU3249   CU        0.644961    0.160155    0.504918     0.006663
NI3250   NI        0.679279    0.131139    0.503049     0.004307
NI3251   NI        0.678369    0.160529    0.536308     0.004307
NI3252   NI        0.713594    0.133187    0.533458     0.004307
CU3253   CU        0.711709    0.162489    0.502977     0.006663
NI3254   NI        0.744068    0.134333    0.500860     0.004307
NI3255   NI        0.746519    0.164303    0.534939     0.004307
NI3256   NI        0.776988    0.133381    0.533960     0.004307
NI3257   NI        0.778617    0.163309    0.503937     0.004307
NI3258   NI        0.811902    0.163681    0.535126     0.004307
CU3259   CU        0.090455    0.226085    0.501900     0.006663
NI3260   NI        0.124784    0.196536    0.502635     0.004307
NI3261   NI        0.156526    0.226444    0.502780     0.004307
CU3262   CU        0.155642    0.194463    0.535171     0.006663
NI3263   NI        0.184981    0.259975    0.504292     0.004307
NI3264   NI        0.187330    0.195954    0.499343     0.004307
NI3265   NI        0.184921    0.229116    0.538359     0.004307
NI3266   NI        0.250484    0.200196    0.523316     0.004307
NI3267   NI        0.222293    0.222914    0.499207     0.004307
NI3268   NI        0.260928    0.203773    0.479583     0.004307
NI3269   NI        0.263632    0.241090    0.527348     0.004307
NI3270   NI        0.293655    0.191067    0.536496     0.004307
NI3271   NI        0.301577    0.239016    0.498823     0.004307
NI3272   NI        0.325920    0.188565    0.502849     0.004307
NI3273   NI        0.334118    0.239719    0.529908     0.004307
NI3274   NI        0.370435    0.206222    0.533907     0.004307
NI3275   NI        0.369073    0.238869    0.500815     0.004307
NI3276   NI        0.399986    0.206143    0.499858     0.004307
NI3277   NI        0.403293    0.236793    0.531695     0.004307
NI3278   NI        0.433966    0.206003    0.531360     0.004307
CU3279   CU        0.433915    0.236123    0.498169     0.006663
CU3280   CU        0.467782    0.207633    0.499426     0.006663
CU3281   CU        0.465644    0.238306    0.529856     0.006663
NI3282   NI        0.499204    0.189956    0.533098     0.004307
CU3283   CU        0.503909    0.238385    0.498704     0.006663
NI3284   NI        0.534337    0.206532    0.499088     0.004307
CU3285   CU        0.538824    0.238697    0.529389     0.006663
NI3286   NI        0.568254    0.204200    0.528641     0.004307
NI3287   NI        0.568763    0.235425    0.499339     0.004307
NI3288   NI        0.601429    0.204772    0.499187     0.004307
CU3289   CU        0.599364    0.236452    0.531901     0.006663
NI3290   NI        0.633978    0.199764    0.529542     0.004307
NI3291   NI        0.634811    0.234186    0.500860     0.004307
NI3292   NI        0.664911    0.199073    0.497122     0.004307
NI3293   NI        0.667162    0.237310    0.531904     0.004307
NI3294   NI        0.714555    0.194058    0.535648     0.004307
NI3295   NI        0.719319    0.227723    0.498415     0.004307
NI3296   NI        0.745597    0.196048    0.505757     0.004307
NI3297   NI        0.751083    0.225801    0.534524     0.004307
NI3298   NI        0.782878    0.195067    0.533158     0.004307
NI3299   NI        0.781647    0.226276    0.502810     0.004307
NI3300   NI        0.812906    0.196450    0.501084     0.004307
CU3301   CU        0.814786    0.228890    0.536095     0.006663
CU3302   CU        0.844202    0.228103    0.500559     0.006663
NI3303   NI        0.059968    0.260615    0.502151     0.004307
NI3304   NI        0.058397    0.290096    0.536717     0.004307
NI3305   NI        0.091037    0.261930    0.532920     0.004307
NI3306   NI        0.089021    0.291412    0.500592     0.004307
NI3307   NI        0.119956    0.260779    0.499090     0.004307
NI3308   NI        0.120599    0.293221    0.535765     0.004307
NI3309   NI        0.155826    0.260596    0.536822     0.004307
NI3310   NI        0.152296    0.291858    0.501158     0.004307
NI3311   NI        0.230246    0.261714    0.507882     0.004307
NI3312   NI        0.203184    0.296713    0.527343     0.004307
NI3313   NI        0.223874    0.262877    0.547513     0.004307
CU3314   CU        0.234456    0.301119    0.496794     0.006663
NI3315   NI        0.270835    0.269820    0.496591     0.004307
CU3316   CU        0.267546    0.299656    0.530637     0.006663
CU3317   CU        0.298159    0.269388    0.528708     0.006663
CU3318   CU        0.300331    0.302559    0.499030     0.006663
CU3319   CU        0.333660    0.269722    0.498736     0.006663
CU3320   CU        0.335272    0.299462    0.530239     0.006663
CU3321   CU        0.369316    0.269593    0.531994     0.006663
CU3322   CU        0.367404    0.299480    0.497748     0.006663
CU3323   CU        0.400627    0.268481    0.500343     0.006663
CU3324   CU        0.400368    0.300403    0.528817     0.006663
CU3325   CU        0.435103    0.267256    0.528848     0.006663
CU3326   CU        0.434912    0.298165    0.500120     0.006663
NI3327   NI        0.469423    0.267969    0.498592     0.004307
NI3328   NI        0.469915    0.299565    0.527372     0.004307
CU3329   CU        0.502222    0.267190    0.530735     0.006663
CU3330   CU        0.503224    0.297850    0.498244     0.006663
CU3331   CU        0.536295    0.267796    0.498171     0.006663
CU3332   CU        0.535828    0.297175    0.528244     0.006663
CU3333   CU        0.569344    0.268424    0.532083     0.006663
NI3334   NI        0.571500    0.299253    0.501136     0.004307
CU3335   CU        0.601281    0.267777    0.499342     0.006663
CU3336   CU        0.602908    0.302080    0.531189     0.006663
NI3337   NI        0.632753    0.267142    0.532412     0.004307
CU3338   CU        0.633890    0.299355    0.498315     0.006663
CU3339   CU        0.667298    0.268462    0.498632     0.006663
NI3340   NI        0.667833    0.299642    0.534995     0.004307
NI3341   NI        0.699154    0.269307    0.533016     0.004307
CU3342   CU        0.716280    0.289261    0.500903     0.006663
NI3343   NI        0.751217    0.256600    0.502611     0.004307
CU3344   CU        0.752185    0.288394    0.531444     0.006663
NI3345   NI        0.783705    0.258684    0.534403     0.004307
NI3346   NI        0.784707    0.290076    0.502518     0.004307
NI3347   NI        0.814374    0.258338    0.501797     0.004307
NI3348   NI        0.815014    0.293354    0.534432     0.004307
CU3349   CU        0.847531    0.261547    0.535320     0.006663
NI3350   NI        0.846258    0.292626    0.503783     0.004307
NI3351   NI        0.875866    0.261752    0.500501     0.004307
NI3352   NI        0.878892    0.295168    0.534940     0.004307
NI3353   NI        0.025177    0.359145    0.501192     0.004307
NI3354   NI        0.054619    0.324103    0.501654     0.004307
NI3355   NI        0.058667    0.356270    0.531455     0.004307
NI3356   NI        0.086576    0.322352    0.534865     0.004307
NI3357   NI        0.088363    0.357817    0.498037     0.004307
CU3358   CU        0.116970    0.323649    0.501512     0.006663
NI3359   NI        0.112971    0.355926    0.533804     0.004307
NI3360   NI        0.147692    0.324892    0.533204     0.004307
CU3361   CU        0.167281    0.362223    0.497392     0.006663
CU3362   CU        0.201588    0.330717    0.499528     0.006663
NI3363   NI        0.197021    0.363155    0.531836     0.004307
NI3364   NI        0.230214    0.331791    0.531511     0.004307
CU3365   CU        0.232902    0.364359    0.499962     0.006663
NI3366   NI        0.266040    0.331414    0.501773     0.004307
NI3367   NI        0.266875    0.364891    0.528089     0.004307
CU3368   CU        0.300072    0.333272    0.531075     0.006663
CU3369   CU        0.298935    0.363703    0.499001     0.006663
CU3370   CU        0.334671    0.331556    0.497061     0.006663
CU3371   CU        0.335030    0.365784    0.531422     0.006663
NI3372   NI        0.368628    0.330046    0.528087     0.004307
CU3373   CU        0.367470    0.363142    0.497623     0.006663
CU3374   CU        0.402463    0.331263    0.498458     0.006663
CU3375   CU        0.399418    0.363971    0.527058     0.006663
CU3376   CU        0.435952    0.332511    0.528361     0.006663
CU3377   CU        0.432758    0.362925    0.497156     0.006663
CU3378   CU        0.469584    0.331267    0.497032     0.006663
CU3379   CU        0.469362    0.362286    0.528710     0.006663
NI3380   NI        0.501866    0.330944    0.528463     0.004307
CU3381   CU        0.502083    0.364149    0.497737     0.006663
CU3382   CU        0.534741    0.330349    0.499710     0.006663
CU3383   CU        0.533816    0.361912    0.529354     0.006663
CU3384   CU        0.567391    0.331328    0.529584     0.006663
CU3385   CU        0.568229    0.361318    0.500156     0.006663
CU3386   CU        0.602379    0.331655    0.501318     0.006663
CU3387   CU        0.600738    0.362425    0.529548     0.006663
NI3388   NI        0.636605    0.331438    0.531907     0.004307
NI3389   NI        0.635117    0.364239    0.500846     0.004307
NI3390   NI        0.667779    0.333457    0.499491     0.004307
NI3391   NI        0.668637    0.361823    0.529857     0.004307
NI3392   NI        0.702052    0.332333    0.537070     0.004307
NI3393   NI        0.701235    0.365110    0.498934     0.004307
CU3394   CU        0.750099    0.321694    0.502478     0.006663
NI3395   NI        0.734139    0.366335    0.533357     0.004307
CU3396   CU        0.785783    0.322983    0.533951     0.006663
CU3397   CU        0.786818    0.353804    0.502683     0.006663
CU3398   CU        0.816818    0.322020    0.501871     0.006663
NI3399   NI        0.817619    0.356420    0.536745     0.004307
NI3400   NI        0.845680    0.324121    0.533440     0.004307
NI3401   NI        0.848929    0.357400    0.500842     0.004307
NI3402   NI        0.878625    0.324166    0.501191     0.004307
CU3403   CU        0.879795    0.357266    0.532567     0.006663
NI3404   NI        0.909511    0.356025    0.498131     0.004307
NI3405   NI        0.024884    0.390160    0.532829     0.004307
NI3406   NI        0.021880    0.421374    0.503312     0.004307
NI3407   NI        0.054494    0.389451    0.497954     0.004307
NI3408   NI        0.052430    0.425413    0.532075     0.004307
NI3409   NI        0.083800    0.390391    0.531335     0.004307
NI3410   NI        0.082734    0.423093    0.500551     0.004307
NI3411   NI        0.114798    0.393212    0.499654     0.004307
NI3412   NI        0.114048    0.422362    0.532132     0.004307
NI3413   NI        0.166355    0.393099    0.533541     0.004307
NI3414   NI        0.145164    0.423314    0.502303     0.004307
CU3415   CU        0.197979    0.393627    0.500009     0.006663
NI3416   NI        0.198665    0.425366    0.532811     0.004307
CU3417   CU        0.230980    0.395346    0.531405     0.006663
CU3418   CU        0.229943    0.425927    0.501546     0.006663
CU3419   CU        0.266197    0.396468    0.500680     0.006663
CU3420   CU        0.264488    0.426617    0.530359     0.006663
CU3421   CU        0.300558    0.396181    0.531857     0.006663
CU3422   CU        0.300129    0.426839    0.501930     0.006663
NI3423   NI        0.332703    0.395165    0.499497     0.004307
CU3424   CU        0.334904    0.426392    0.530274     0.006663
CU3425   CU        0.368398    0.393880    0.528889     0.006663
CU3426   CU        0.365666    0.425616    0.499094     0.006663
CU3427   CU        0.400963    0.395222    0.497136     0.006663
CU3428   CU        0.402154    0.426239    0.528706     0.006663
CU3429   CU        0.434857    0.395123    0.527290     0.006663
CU3430   CU        0.436070    0.424346    0.495242     0.006663
CU3431   CU        0.468422    0.394432    0.497748     0.006663
CU3432   CU        0.467253    0.425438    0.527360     0.006663
CU3433   CU        0.500993    0.393648    0.527796     0.006663
CU3434   CU        0.501326    0.424227    0.495503     0.006663
CU3435   CU        0.534342    0.395433    0.498245     0.006663
CU3436   CU        0.534109    0.428118    0.527784     0.006663
CU3437   CU        0.567666    0.394262    0.529014     0.006663
CU3438   CU        0.568055    0.426917    0.497808     0.006663
CU3439   CU        0.599780    0.393735    0.497351     0.006663
NI3440   NI        0.603403    0.426157    0.528762     0.004307
NI3441   NI        0.635034    0.395949    0.529509     0.004307
CU3442   CU        0.636247    0.425526    0.497408     0.006663
CU3443   CU        0.668661    0.395142    0.498574     0.006663
CU3444   CU        0.666941    0.428393    0.530832     0.006663
CU3445   CU        0.699755    0.395291    0.530792     0.006663
NI3446   NI        0.704515    0.426346    0.498954     0.004307
NI3447   NI        0.733668    0.394533    0.499607     0.004307
NI3448   NI        0.736637    0.426233    0.530851     0.004307
CU3449   CU        0.767817    0.393991    0.529076     0.006663
NI3450   NI        0.768838    0.424363    0.499092     0.004307
NI3451   NI        0.817977    0.389346    0.500310     0.004307
NI3452   NI        0.821096    0.419457    0.533379     0.004307
NI3453   NI        0.848845    0.389081    0.535563     0.004307
NI3454   NI        0.848488    0.424308    0.500863     0.004307
NI3455   NI        0.877830    0.392673    0.500882     0.004307
NI3456   NI        0.876945    0.424197    0.535282     0.004307
NI3457   NI        0.905554    0.393076    0.535087     0.004307
NI3458   NI        0.911523    0.421769    0.501483     0.004307
NI3459   NI        0.025471    0.461428    0.537070     0.004307
NI3460   NI        0.025129    0.490966    0.505867     0.004307
CU3461   CU        0.052238    0.457165    0.501078     0.006663
CU3462   CU        0.057092    0.489962    0.534672     0.006663
CU3463   CU        0.083399    0.455301    0.534771     0.006663
NI3464   NI        0.084259    0.490278    0.500027     0.004307
NI3465   NI        0.114215    0.455832    0.500559     0.004307
NI3466   NI        0.115641    0.489819    0.534392     0.004307
NI3467   NI        0.168479    0.457784    0.529021     0.004307
CU3468   CU        0.167304    0.486839    0.497833     0.006663
CU3469   CU        0.202166    0.458234    0.499005     0.006663
NI3470   NI        0.200463    0.489802    0.527401     0.004307
CU3471   CU        0.233316    0.457774    0.531603     0.006663
NI3472   NI        0.233458    0.490862    0.500696     0.004307
NI3473   NI        0.265528    0.457368    0.499909     0.004307
CU3474   CU        0.266264    0.491271    0.529987     0.006663
CU3475   CU        0.297490    0.458592    0.529867     0.006663
CU3476   CU        0.298513    0.489091    0.499532     0.006663
CU3477   CU        0.335413    0.458792    0.500364     0.006663
CU3478   CU        0.333089    0.488968    0.530729     0.006663
CU3479   CU        0.368624    0.456581    0.529932     0.006663
CU3480   CU        0.368702    0.488106    0.497215     0.006663
CU3481   CU        0.401398    0.459337    0.497095     0.006663
CU3482   CU        0.403005    0.487085    0.530438     0.006663
CU3483   CU        0.434879    0.457870    0.530359     0.006663
CU3484   CU        0.436158    0.488710    0.497713     0.006663
NI3485   NI        0.471314    0.456785    0.498238     0.004307
CU3486   CU        0.467442    0.490183    0.528319     0.006663
CU3487   CU        0.503045    0.459712    0.528784     0.006663
CU3488   CU        0.501900    0.489989    0.495856     0.006663
CU3489   CU        0.536168    0.456435    0.495673     0.006663
CU3490   CU        0.535241    0.489523    0.529702     0.006663
NI3491   NI        0.567672    0.456720    0.529052     0.004307
CU3492   CU        0.567934    0.490990    0.496645     0.006663
CU3493   CU        0.601026    0.458160    0.497063     0.006663
NI3494   NI        0.599554    0.489434    0.526958     0.004307
CU3495   CU        0.633399    0.458096    0.528906     0.006663
CU3496   CU        0.635478    0.489666    0.496538     0.006663
CU3497   CU        0.668330    0.459450    0.498858     0.006663
CU3498   CU        0.668654    0.486834    0.530788     0.006663
NI3499   NI        0.704254    0.456363    0.529081     0.004307
CU3500   CU        0.701952    0.489123    0.498126     0.006663
CU3501   CU        0.736178    0.455895    0.499019     0.006663
CU3502   CU        0.736527    0.488984    0.530592     0.006663
CU3503   CU        0.768195    0.455257    0.529860     0.006663
NI3504   NI        0.768046    0.484870    0.496144     0.004307
NI3505   NI        0.803085    0.451168    0.496204     0.004307
NI3506   NI        0.818067    0.491428    0.537089     0.004307
NI3507   NI        0.847274    0.457457    0.533331     0.004307
CU3508   CU        0.849540    0.489919    0.501515     0.006663
CU3509   CU        0.878454    0.457343    0.503040     0.006663
NI3510   NI        0.876410    0.490906    0.536209     0.004307
NI3511   NI        0.906676    0.456537    0.536322     0.004307
NI3512   NI        0.909799    0.489212    0.507844     0.004307
NI3513   NI        0.025988    0.524790    0.535422     0.004307
NI3514   NI        0.028756    0.555576    0.501868     0.004307
NI3515   NI        0.055985    0.522305    0.501277     0.004307
NI3516   NI        0.056779    0.555800    0.534698     0.004307
CU3517   CU        0.085713    0.523222    0.535402     0.006663
NI3518   NI        0.088003    0.554862    0.499797     0.004307
CU3519   CU        0.117597    0.523470    0.501900     0.006663
NI3520   NI        0.115895    0.556244    0.534099     0.004307
CU3521   CU        0.148179    0.527168    0.535118     0.006663
NI3522   NI        0.147205    0.555844    0.503748     0.004307
CU3523   CU        0.183102    0.527323    0.505053     0.006663
NI3524   NI        0.179989    0.557291    0.535888     0.004307
NI3525   NI        0.233105    0.524438    0.529352     0.004307
NI3526   NI        0.236800    0.556196    0.499792     0.004307
CU3527   CU        0.267085    0.522653    0.499875     0.006663
NI3528   NI        0.266721    0.552634    0.531298     0.004307
CU3529   CU        0.299160    0.522312    0.528010     0.006663
CU3530   CU        0.299141    0.552909    0.498300     0.006663
NI3531   NI        0.332450    0.517995    0.498840     0.004307
CU3532   CU        0.334188    0.550583    0.530572     0.006663
CU3533   CU        0.365852    0.518596    0.527980     0.006663
CU3534   CU        0.367248    0.550123    0.498765     0.006663
CU3535   CU        0.399720    0.519502    0.497411     0.006663
CU3536   CU        0.400629    0.551302    0.529241     0.006663
CU3537   CU        0.433476    0.519616    0.528520     0.006663
CU3538   CU        0.435825    0.552007    0.499011     0.006663
CU3539   CU        0.469745    0.520053    0.496502     0.006663
CU3540   CU        0.468138    0.550722    0.529753     0.006663
CU3541   CU        0.500368    0.519947    0.529243     0.006663
CU3542   CU        0.501993    0.552102    0.499924     0.006663
CU3543   CU        0.536303    0.520311    0.497339     0.006663
CU3544   CU        0.534431    0.550956    0.529991     0.006663
CU3545   CU        0.566856    0.520326    0.529234     0.006663
CU3546   CU        0.567826    0.553298    0.499936     0.006663
CU3547   CU        0.603622    0.519909    0.495770     0.006663
CU3548   CU        0.601814    0.552459    0.528744     0.006663
CU3549   CU        0.634747    0.522654    0.530107     0.006663
NI3550   NI        0.633525    0.553284    0.497779     0.004307
CU3551   CU        0.667776    0.522261    0.495670     0.006663
CU3552   CU        0.668027    0.550569    0.529937     0.006663
CU3553   CU        0.699338    0.518006    0.528246     0.006663
CU3554   CU        0.701997    0.552075    0.498089     0.006663
CU3555   CU        0.734427    0.522006    0.499493     0.006663
NI3556   NI        0.734566    0.552316    0.531570     0.004307
NI3557   NI        0.789707    0.522991    0.535545     0.004307
NI3558   NI        0.766717    0.551597    0.498451     0.004307
CU3559   CU        0.819085    0.524811    0.502708     0.006663
NI3560   NI        0.814871    0.558332    0.535752     0.004307
CU3561   CU        0.845673    0.524137    0.535092     0.006663
NI3562   NI        0.849910    0.557340    0.504028     0.004307
CU3563   CU        0.879644    0.522562    0.501431     0.006663
NI3564   NI        0.877577    0.554274    0.539149     0.004307
NI3565   NI        0.908537    0.522201    0.538477     0.004307
NI3566   NI        0.909207    0.553820    0.502741     0.004307
NI3567   NI        0.056664    0.587884    0.502795     0.004307
NI3568   NI        0.059550    0.622233    0.537264     0.004307
NI3569   NI        0.087571    0.588509    0.534822     0.004307
NI3570   NI        0.088556    0.622014    0.502368     0.004307
CU3571   CU        0.118934    0.590624    0.501516     0.006663
NI3572   NI        0.120172    0.620892    0.535640     0.004307
NI3573   NI        0.149264    0.588975    0.535631     0.004307
NI3574   NI        0.151196    0.625046    0.504616     0.004307
NI3575   NI        0.199722    0.583576    0.499530     0.004307
NI3576   NI        0.198412    0.617629    0.537071     0.004307
CU3577   CU        0.233470    0.585702    0.533573     0.006663
NI3578   NI        0.232700    0.615010    0.497705     0.004307
NI3579   NI        0.266928    0.584833    0.502620     0.004307
CU3580   CU        0.265816    0.617354    0.532595     0.006663
CU3581   CU        0.301218    0.583627    0.531281     0.006663
CU3582   CU        0.301299    0.615796    0.502416     0.006663
NI3583   NI        0.333937    0.584954    0.500595     0.004307
NI3584   NI        0.335767    0.615532    0.532868     0.004307
CU3585   CU        0.366610    0.582594    0.532413     0.006663
CU3586   CU        0.366937    0.616514    0.501861     0.006663
CU3587   CU        0.399333    0.583170    0.501249     0.006663
CU3588   CU        0.399198    0.614780    0.532513     0.006663
CU3589   CU        0.434772    0.582125    0.531662     0.006663
NI3590   NI        0.435064    0.613492    0.502931     0.004307
CU3591   CU        0.468204    0.582372    0.499977     0.006663
CU3592   CU        0.469590    0.615102    0.530572     0.006663
NI3593   NI        0.502639    0.584668    0.532598     0.004307
CU3594   CU        0.501392    0.616168    0.502492     0.006663
CU3595   CU        0.534262    0.586268    0.500536     0.006663
CU3596   CU        0.533447    0.616207    0.532905     0.006663
CU3597   CU        0.568151    0.582304    0.532835     0.006663
CU3598   CU        0.567744    0.616308    0.497725     0.006663
CU3599   CU        0.599253    0.585034    0.501226     0.006663
CU3600   CU        0.600619    0.614035    0.530682     0.006663
NI3601   NI        0.634446    0.584293    0.531774     0.004307
CU3602   CU        0.635229    0.614792    0.498524     0.006663
CU3603   CU        0.667489    0.584234    0.501416     0.006663
NI3604   NI        0.665536    0.614520    0.530601     0.004307
CU3605   CU        0.703280    0.582386    0.531234     0.006663
NI3606   NI        0.703580    0.613929    0.498011     0.004307
NI3607   NI        0.736334    0.583160    0.498899     0.004307
NI3608   NI        0.737366    0.612681    0.529679     0.004307
NI3609   NI        0.774215    0.582650    0.529365     0.004307
NI3610   NI        0.769822    0.614522    0.498562     0.004307
NI3611   NI        0.815401    0.590058    0.503292     0.004307
NI3612   NI        0.808219    0.620839    0.534020     0.004307
NI3613   NI        0.846587    0.588936    0.536109     0.004307
CU3614   CU        0.844962    0.621738    0.503396     0.006663
NI3615   NI        0.877955    0.591444    0.505114     0.004307
NI3616   NI        0.875465    0.623608    0.535491     0.004307
CU3617   CU        0.058186    0.652720    0.501843     0.006663
NI3618   NI        0.092055    0.653212    0.531644     0.004307
CU3619   CU        0.087186    0.685851    0.499739     0.006663
NI3620   NI        0.119431    0.655572    0.498854     0.004307
CU3621   CU        0.119359    0.688166    0.530636     0.006663
NI3622   NI        0.153009    0.657576    0.532419     0.004307
NI3623   NI        0.155472    0.690512    0.500460     0.004307
CU3624   CU        0.185165    0.659679    0.500434     0.006663
NI3625   NI        0.186029    0.688459    0.533862     0.004307
NI3626   NI        0.231330    0.647564    0.536290     0.004307
CU3627   CU        0.220377    0.691658    0.501282     0.006663
CU3628   CU        0.266811    0.646554    0.500783     0.006663
NI3629   NI        0.265887    0.675144    0.531911     0.004307
NI3630   NI        0.300317    0.646829    0.532063     0.004307
CU3631   CU        0.300249    0.677492    0.501586     0.006663
NI3632   NI        0.334336    0.646536    0.500037     0.004307
NI3633   NI        0.332433    0.678302    0.533357     0.004307
CU3634   CU        0.368847    0.646480    0.533501     0.006663
NI3635   NI        0.367531    0.677035    0.501398     0.004307
CU3636   CU        0.401885    0.646424    0.500787     0.006663
CU3637   CU        0.400939    0.678621    0.531921     0.006663
CU3638   CU        0.433549    0.645846    0.531483     0.006663
CU3639   CU        0.433764    0.678631    0.499498     0.006663
CU3640   CU        0.467273    0.646939    0.499485     0.006663
CU3641   CU        0.466914    0.677562    0.531169     0.006663
CU3642   CU        0.499719    0.648017    0.530911     0.006663
CU3643   CU        0.501295    0.677678    0.499635     0.006663
CU3644   CU        0.534347    0.647136    0.501092     0.006663
CU3645   CU        0.533810    0.678564    0.530153     0.006663
NI3646   NI        0.566109    0.645034    0.530353     0.004307
NI3647   NI        0.566023    0.677656    0.499056     0.004307
NI3648   NI        0.601944    0.647896    0.498032     0.004307
NI3649   NI        0.600134    0.676648    0.528463     0.004307
NI3650   NI        0.634769    0.646165    0.530372     0.004307
CU3651   CU        0.635708    0.675028    0.500551     0.006663
CU3652   CU        0.668501    0.645189    0.500466     0.006663
NI3653   NI        0.671414    0.673515    0.531440     0.004307
NI3654   NI        0.703855    0.641902    0.527902     0.004307
NI3655   NI        0.704012    0.672560    0.499812     0.004307
NI3656   NI        0.737102    0.643183    0.498182     0.004307
NI3657   NI        0.747328    0.686200    0.535709     0.004307
NI3658   NI        0.780765    0.654785    0.536920     0.004307
NI3659   NI        0.779569    0.686310    0.503713     0.004307
CU3660   CU        0.812621    0.655123    0.504982     0.006663
NI3661   NI        0.810474    0.686746    0.536894     0.004307
NI3662   NI        0.844684    0.651710    0.534995     0.004307
CU3663   CU        0.842512    0.684256    0.504998     0.006663
NI3664   NI        0.874866    0.655756    0.503045     0.004307
CU3665   CU        0.123541    0.721499    0.500491     0.006663
NI3666   NI        0.126843    0.749860    0.536869     0.004307
NI3667   NI        0.155632    0.719307    0.533880     0.004307
NI3668   NI        0.153509    0.753021    0.501746     0.004307
NI3669   NI        0.188507    0.723478    0.501474     0.004307
NI3670   NI        0.189024    0.752182    0.534592     0.004307
NI3671   NI        0.218978    0.721973    0.532489     0.004307
NI3672   NI        0.222305    0.752982    0.501159     0.004307
NI3673   NI        0.254985    0.723478    0.501287     0.004307
NI3674   NI        0.255754    0.752236    0.536863     0.004307
NI3675   NI        0.300902    0.708158    0.534330     0.004307
NI3676   NI        0.290875    0.755062    0.504249     0.004307
NI3677   NI        0.334026    0.707291    0.499655     0.004307
NI3678   NI        0.329007    0.754693    0.536284     0.004307
NI3679   NI        0.364666    0.707425    0.532928     0.004307
NI3680   NI        0.359881    0.760197    0.505080     0.004307
CU3681   CU        0.404181    0.708002    0.499535     0.006663
NI3682   NI        0.394928    0.759362    0.536258     0.004307
NI3683   NI        0.436432    0.709260    0.529872     0.004307
NI3684   NI        0.438064    0.737514    0.499781     0.004307
NI3685   NI        0.468778    0.708732    0.498349     0.004307
NI3686   NI        0.471360    0.741226    0.527608     0.004307
NI3687   NI        0.500675    0.708294    0.531395     0.004307
NI3688   NI        0.501750    0.758598    0.501967     0.004307
CU3689   CU        0.532823    0.706283    0.500753     0.006663
NI3690   NI        0.529273    0.738338    0.530008     0.004307
NI3691   NI        0.568194    0.706497    0.528476     0.004307
CU3692   CU        0.573379    0.757216    0.502689     0.006663
NI3693   NI        0.607825    0.727342    0.502126     0.004307
CU3694   CU        0.606484    0.752809    0.535866     0.006663
NI3695   NI        0.642330    0.725466    0.535939     0.004307
NI3696   NI        0.643601    0.754405    0.502898     0.004307
NI3697   NI        0.677770    0.724418    0.502055     0.004307
NI3698   NI        0.677622    0.752956    0.538114     0.004307
NI3699   NI        0.711295    0.718481    0.535776     0.004307
NI3700   NI        0.713266    0.751248    0.501702     0.004307
NI3701   NI        0.744635    0.719467    0.502776     0.004307
CU3702   CU        0.743695    0.748937    0.535594     0.006663
CU3703   CU        0.779445    0.720480    0.537142     0.006663
NI3704   NI        0.779372    0.749286    0.502774     0.004307
NI3705   NI        0.810169    0.715880    0.503662     0.004307
NI3706   NI        0.850181    0.750049    0.560376     0.004307
NI3707   NI        0.159502    0.781911    0.533667     0.004307
NI3708   NI        0.187638    0.783129    0.501695     0.004307
NI3709   NI        0.222883    0.782589    0.536101     0.004307
NI3710   NI        0.224856    0.811227    0.502925     0.004307
NI3711   NI        0.255725    0.782857    0.501272     0.004307
NI3712   NI        0.256531    0.813320    0.536495     0.004307
NI3713   NI        0.290865    0.783189    0.535076     0.004307
NI3714   NI        0.292044    0.813160    0.501786     0.004307
CU3715   CU        0.326154    0.785153    0.503157     0.006663
CU3716   CU        0.325136    0.814900    0.535244     0.006663
NI3717   NI        0.360048    0.786445    0.536806     0.004307
NI3718   NI        0.361425    0.816555    0.503079     0.004307
NI3719   NI        0.396017    0.788752    0.504694     0.004307
CU3720   CU        0.394335    0.814810    0.535512     0.006663
NI3721   NI        0.430583    0.787292    0.537455     0.004307
NI3722   NI        0.431651    0.815575    0.500170     0.004307
NI3723   NI        0.468879    0.789485    0.499881     0.004307
CU3724   CU        0.466712    0.817081    0.531791     0.006663
NI3725   NI        0.502170    0.790815    0.533049     0.004307
CU3726   CU        0.504160    0.816715    0.498997     0.006663
NI3727   NI        0.536426    0.787646    0.499596     0.004307
NI3728   NI        0.535788    0.817985    0.531794     0.004307
CU3729   CU        0.572846    0.785959    0.534957     0.006663
NI3730   NI        0.574049    0.813488    0.503608     0.004307
NI3731   NI        0.609270    0.784591    0.502957     0.004307
NI3732   NI        0.608410    0.813752    0.534298     0.004307
CU3733   CU        0.642455    0.782914    0.535297     0.006663
NI3734   NI        0.643576    0.812778    0.503195     0.004307
NI3735   NI        0.678947    0.781715    0.501870     0.004307
NI3736   NI        0.678628    0.809861    0.534835     0.004307
NI3737   NI        0.713417    0.780918    0.532413     0.004307
NI3738   NI        0.710394    0.810286    0.499974     0.004307
CU3739   CU        0.747280    0.780473    0.503339     0.006663
NI3740   NI        0.776777    0.779823    0.536494     0.004307
NI3741   NI        0.261788    0.842397    0.503935     0.004307
NI3742   NI        0.292691    0.843245    0.534296     0.004307
NI3743   NI        0.327254    0.844033    0.501894     0.004307
NI3744   NI        0.359151    0.844342    0.533928     0.004307
NI3745   NI        0.364291    0.875279    0.499632     0.004307
CU3746   CU        0.397137    0.844851    0.500813     0.006663
NI3747   NI        0.395924    0.871992    0.531552     0.004307
CU3748   CU        0.431477    0.845006    0.532743     0.006663
NI3749   NI        0.431529    0.875074    0.501194     0.004307
NI3750   NI        0.467770    0.846638    0.500630     0.004307
NI3751   NI        0.465654    0.875565    0.531172     0.004307
NI3752   NI        0.498756    0.846527    0.530762     0.004307
NI3753   NI        0.504481    0.875805    0.501982     0.004307
NI3754   NI        0.538904    0.844031    0.500008     0.004307
CU3755   CU        0.539292    0.864452    0.536386     0.006663
NI3756   NI        0.575662    0.842558    0.532962     0.004307
NI3757   NI        0.574824    0.871615    0.500756     0.004307
NI3758   NI        0.608345    0.842058    0.502443     0.004307
NI3759   NI        0.645864    0.840493    0.536468     0.004307
CU3760   CU        0.677026    0.841534    0.502778     0.006663
NI3761   NI        0.430199    0.044904    0.569089     0.004307
NI3762   NI        0.500953    0.049815    0.569572     0.004307
NI3763   NI        0.224379    0.100123    0.566743     0.004307
CU3764   CU        0.260430    0.104737    0.600100     0.006663
NI3765   NI        0.291657    0.103626    0.566549     0.004307
NI3766   NI        0.326378    0.074318    0.567655     0.004307
NI3767   NI        0.327064    0.102210    0.599825     0.004307
NI3768   NI        0.359481    0.068792    0.599341     0.004307
NI3769   NI        0.360956    0.103136    0.569506     0.004307
NI3770   NI        0.393813    0.073010    0.569492     0.004307
CU3771   CU        0.396637    0.102766    0.602163     0.006663
NI3772   NI        0.430855    0.073781    0.602400     0.004307
NI3773   NI        0.429101    0.103118    0.572914     0.004307
CU3774   CU        0.462793    0.074976    0.571829     0.006663
NI3775   NI        0.463843    0.104644    0.601293     0.004307
NI3776   NI        0.500236    0.078801    0.600989     0.004307
NI3777   NI        0.501865    0.092790    0.561382     0.004307
NI3778   NI        0.539714    0.074771    0.563894     0.004307
NI3779   NI        0.540213    0.100253    0.599733     0.004307
NI3780   NI        0.572315    0.070721    0.601830     0.004307
NI3781   NI        0.575346    0.099801    0.569878     0.004307
NI3782   NI        0.608692    0.071485    0.567662     0.004307
NI3783   NI        0.609795    0.099424    0.601476     0.004307
CU3784   CU        0.643916    0.100226    0.568071     0.006663
NI3785   NI        0.677123    0.102490    0.600659     0.004307
NI3786   NI        0.711101    0.102557    0.568222     0.004307
NI3787   NI        0.157612    0.164926    0.566075     0.004307
NI3788   NI        0.192802    0.135633    0.564451     0.004307
CU3789   CU        0.194056    0.164309    0.598701     0.006663
NI3790   NI        0.224879    0.133729    0.595124     0.004307
NI3791   NI        0.224031    0.163039    0.565287     0.004307
CU3792   CU        0.258916    0.133383    0.568173     0.006663
NI3793   NI        0.257351    0.165505    0.598843     0.004307
NI3794   NI        0.293900    0.133104    0.599247     0.004307
NI3795   NI        0.291681    0.163319    0.568481     0.004307
CU3796   CU        0.326541    0.132784    0.569384     0.006663
NI3797   NI        0.327476    0.160612    0.600913     0.004307
CU3798   CU        0.360274    0.131404    0.602421     0.006663
CU3799   CU        0.361447    0.162506    0.571110     0.006663
NI3800   NI        0.394001    0.131171    0.573048     0.004307
NI3801   NI        0.392595    0.161681    0.603388     0.004307
NI3802   NI        0.429861    0.132921    0.602243     0.004307
NI3803   NI        0.437190    0.154254    0.562704     0.004307
NI3804   NI        0.468768    0.123199    0.563822     0.004307
NI3805   NI        0.469126    0.152445    0.594646     0.004307
NI3806   NI        0.503878    0.122857    0.594611     0.004307
CU3807   CU        0.501825    0.154063    0.562500     0.006663
NI3808   NI        0.543689    0.132636    0.569671     0.004307
NI3809   NI        0.546437    0.162664    0.601049     0.004307
CU3810   CU        0.576644    0.131463    0.598881     0.006663
CU3811   CU        0.577087    0.162740    0.567528     0.006663
NI3812   NI        0.611260    0.130392    0.567627     0.004307
NI3813   NI        0.611038    0.158964    0.599723     0.004307
NI3814   NI        0.644374    0.130281    0.599956     0.004307
CU3815   CU        0.643592    0.160523    0.570320     0.006663
CU3816   CU        0.677042    0.132904    0.570019     0.006663
CU3817   CU        0.679360    0.163683    0.597895     0.006663
NI3818   NI        0.711303    0.132714    0.599528     0.004307
NI3819   NI        0.712718    0.162192    0.567795     0.004307
NI3820   NI        0.746298    0.135206    0.565856     0.004307
NI3821   NI        0.749653    0.164702    0.596164     0.004307
NI3822   NI        0.779706    0.163556    0.562821     0.004307
NI3823   NI        0.090400    0.229957    0.569385     0.004307
NI3824   NI        0.127263    0.196324    0.569368     0.004307
NI3825   NI        0.122065    0.229437    0.599172     0.004307
CU3826   CU        0.160546    0.196171    0.597336     0.006663
NI3827   NI        0.156203    0.230961    0.569704     0.004307
NI3828   NI        0.190500    0.197036    0.565866     0.004307
NI3829   NI        0.191311    0.226434    0.601109     0.004307
NI3830   NI        0.226230    0.194801    0.598222     0.004307
NI3831   NI        0.223188    0.228345    0.569437     0.004307
NI3832   NI        0.258969    0.195306    0.566129     0.004307
NI3833   NI        0.258277    0.224569    0.600574     0.004307
NI3834   NI        0.291015    0.193994    0.600350     0.004307
NI3835   NI        0.300398    0.241645    0.560591     0.004307
NI3836   NI        0.330160    0.210836    0.558110     0.004307
CU3837   CU        0.333467    0.238930    0.592352     0.006663
CU3838   CU        0.359456    0.192820    0.604754     0.006663
NI3839   NI        0.367345    0.236726    0.563070     0.004307
CU3840   CU        0.402023    0.205815    0.564327     0.006663
CU3841   CU        0.402131    0.239811    0.591092     0.006663
NI3842   NI        0.434772    0.206941    0.591808     0.004307
CU3843   CU        0.433835    0.237828    0.561862     0.006663
NI3844   NI        0.467181    0.184567    0.565391     0.004307
NI3845   NI        0.471223    0.235854    0.596454     0.004307
NI3846   NI        0.502115    0.203639    0.595034     0.004307
NI3847   NI        0.503308    0.238892    0.564816     0.004307
CU3848   CU        0.546173    0.196618    0.573836     0.006663
NI3849   NI        0.535197    0.237272    0.595553     0.004307
CU3850   CU        0.580950    0.192935    0.600490     0.006663
NI3851   NI        0.567452    0.238207    0.563018     0.004307
NI3852   NI        0.611364    0.190093    0.568128     0.004307
NI3853   NI        0.600717    0.236084    0.600859     0.004307
NI3854   NI        0.645820    0.195391    0.596048     0.004307
NI3855   NI        0.647253    0.222235    0.565863     0.004307
NI3856   NI        0.680917    0.192526    0.567326     0.004307
NI3857   NI        0.668264    0.231798    0.601530     0.004307
NI3858   NI        0.713225    0.193505    0.599009     0.004307
NI3859   NI        0.717056    0.226663    0.567813     0.004307
NI3860   NI        0.747336    0.194384    0.568276     0.004307
NI3861   NI        0.749118    0.225083    0.597016     0.004307
NI3862   NI        0.781403    0.194971    0.598346     0.004307
CU3863   CU        0.780407    0.227943    0.567322     0.006663
NI3864   NI        0.812763    0.198251    0.566197     0.004307
CU3865   CU        0.811834    0.226681    0.597654     0.006663
CU3866   CU        0.844760    0.230018    0.568436     0.006663
NI3867   NI        0.089455    0.260192    0.598100     0.004307
NI3868   NI        0.089084    0.291862    0.566770     0.004307
NI3869   NI        0.120089    0.259299    0.566511     0.004307
NI3870   NI        0.122254    0.292419    0.599918     0.004307
NI3871   NI        0.153975    0.261717    0.602291     0.004307
NI3872   NI        0.152261    0.288909    0.567008     0.004307
NI3873   NI        0.189345    0.258476    0.572311     0.004307
CU3874   CU        0.186417    0.291063    0.604006     0.006663
NI3875   NI        0.230952    0.267332    0.590868     0.004307
CU3876   CU        0.236011    0.300447    0.561217     0.006663
NI3877   NI        0.266498    0.270601    0.561386     0.004307
CU3878   CU        0.266556    0.298700    0.592047     0.006663
NI3879   NI        0.301852    0.267482    0.593990     0.004307
CU3880   CU        0.301309    0.300539    0.559549     0.006663
NI3881   NI        0.334250    0.269777    0.562471     0.004307
CU3882   CU        0.334405    0.299873    0.592344     0.006663
CU3883   CU        0.369146    0.268740    0.591543     0.006663
CU3884   CU        0.368312    0.303140    0.559612     0.006663
NI3885   NI        0.399908    0.270104    0.561748     0.004307
CU3886   CU        0.400956    0.301158    0.592642     0.006663
CU3887   CU        0.438512    0.267857    0.593041     0.006663
CU3888   CU        0.435616    0.299458    0.560808     0.006663
CU3889   CU        0.469628    0.268896    0.560734     0.006663
NI3890   NI        0.469919    0.301131    0.592456     0.004307
NI3891   NI        0.502072    0.268819    0.595127     0.004307
CU3892   CU        0.502525    0.299396    0.561898     0.006663
CU3893   CU        0.533964    0.268435    0.562959     0.006663
CU3894   CU        0.535634    0.296338    0.594217     0.006663
NI3895   NI        0.569664    0.267266    0.596064     0.004307
CU3896   CU        0.566628    0.299469    0.563704     0.006663
NI3897   NI        0.599081    0.268128    0.562928     0.004307
CU3898   CU        0.600419    0.299705    0.594259     0.006663
NI3899   NI        0.635067    0.266071    0.597827     0.004307
CU3900   CU        0.634789    0.302836    0.565098     0.006663
NI3901   NI        0.666461    0.268678    0.563731     0.004307
NI3902   NI        0.667922    0.298925    0.595594     0.004307
NI3903   NI        0.699436    0.267019    0.594800     0.004307
NI3904   NI        0.701879    0.300709    0.566620     0.004307
NI3905   NI        0.749589    0.258617    0.562157     0.004307
NI3906   NI        0.743967    0.305320    0.601502     0.004307
NI3907   NI        0.779591    0.259152    0.601147     0.004307
NI3908   NI        0.780441    0.292669    0.566778     0.004307
NI3909   NI        0.814986    0.260359    0.568958     0.004307
NI3910   NI        0.815785    0.291986    0.600145     0.004307
NI3911   NI        0.841711    0.258535    0.603403     0.004307
NI3912   NI        0.843866    0.294754    0.566316     0.004307
NI3913   NI        0.055483    0.323860    0.567501     0.004307
NI3914   NI        0.057793    0.357876    0.600879     0.004307
NI3915   NI        0.087659    0.323597    0.598261     0.004307
NI3916   NI        0.083253    0.356328    0.566960     0.004307
NI3917   NI        0.118690    0.325773    0.566985     0.004307
NI3918   NI        0.117448    0.357891    0.599641     0.004307
NI3919   NI        0.150932    0.324930    0.602997     0.004307
NI3920   NI        0.167450    0.363132    0.563661     0.004307
NI3921   NI        0.199284    0.331023    0.564450     0.004307
NI3922   NI        0.202442    0.363728    0.592912     0.004307
CU3923   CU        0.234605    0.330829    0.592159     0.006663
CU3924   CU        0.232475    0.361727    0.561582     0.006663
CU3925   CU        0.265054    0.331840    0.559218     0.006663
CU3926   CU        0.267037    0.365213    0.593277     0.006663
CU3927   CU        0.301499    0.330776    0.591123     0.006663
CU3928   CU        0.299487    0.364159    0.560224     0.006663
NI3929   NI        0.334610    0.333674    0.560215     0.004307
CU3930   CU        0.334776    0.362773    0.592176     0.006663
CU3931   CU        0.366413    0.332951    0.593539     0.006663
CU3932   CU        0.368798    0.364404    0.562589     0.006663
NI3933   NI        0.403161    0.331638    0.559999     0.004307
CU3934   CU        0.400643    0.364020    0.593158     0.006663
CU3935   CU        0.435931    0.331603    0.591521     0.006663
CU3936   CU        0.433152    0.362997    0.561201     0.006663
CU3937   CU        0.468158    0.332344    0.562019     0.006663
CU3938   CU        0.468426    0.361851    0.591861     0.006663
CU3939   CU        0.501706    0.332593    0.592313     0.006663
CU3940   CU        0.501996    0.362765    0.558592     0.006663
CU3941   CU        0.533753    0.333031    0.560596     0.006663
NI3942   NI        0.535800    0.363533    0.592212     0.004307
NI3943   NI        0.567696    0.330711    0.591541     0.004307
CU3944   CU        0.567765    0.363425    0.559715     0.006663
CU3945   CU        0.599103    0.331473    0.560256     0.006663
NI3946   NI        0.599417    0.361924    0.591160     0.004307
NI3947   NI        0.635266    0.332265    0.595864     0.004307
NI3948   NI        0.633958    0.363288    0.562379     0.004307
CU3949   CU        0.670266    0.332892    0.565240     0.006663
CU3950   CU        0.668896    0.364868    0.594765     0.006663
NI3951   NI        0.705308    0.329379    0.597096     0.004307
CU3952   CU        0.700822    0.365076    0.563167     0.006663
CU3953   CU        0.733011    0.332371    0.565950     0.006663
NI3954   NI        0.740858    0.365641    0.593980     0.004307
NI3955   NI        0.784823    0.327078    0.601245     0.004307
NI3956   NI        0.782188    0.357490    0.571653     0.004307
CU3957   CU        0.814605    0.326294    0.567934     0.006663
NI3958   NI        0.815038    0.359226    0.601348     0.004307
CU3959   CU        0.845733    0.328089    0.600802     0.006663
NI3960   NI        0.848564    0.361639    0.568286     0.004307
NI3961   NI        0.877569    0.327041    0.566771     0.004307
NI3962   NI        0.878813    0.357467    0.601113     0.004307
NI3963   NI        0.000667    0.424963    0.541126     0.004307
NI3964   NI        0.056763    0.390715    0.564227     0.004307
CU3965   CU        0.057245    0.424922    0.599499     0.006663
NI3966   NI        0.086102    0.390626    0.600143     0.004307
NI3967   NI        0.084036    0.424075    0.565000     0.004307
NI3968   NI        0.111022    0.389427    0.565547     0.004307
NI3969   NI        0.113548    0.422143    0.596978     0.004307
NI3970   NI        0.168589    0.394217    0.596129     0.004307
NI3971   NI        0.165824    0.426040    0.567669     0.004307
CU3972   CU        0.199242    0.394122    0.563611     0.006663
NI3973   NI        0.202277    0.426800    0.593898     0.004307
NI3974   NI        0.234626    0.394493    0.592936     0.004307
CU3975   CU        0.232189    0.425716    0.562907     0.006663
NI3976   NI        0.266236    0.394580    0.561760     0.004307
NI3977   NI        0.266693    0.427836    0.592793     0.004307
CU3978   CU        0.300958    0.395182    0.591564     0.006663
CU3979   CU        0.302921    0.426790    0.562408     0.006663
CU3980   CU        0.334344    0.395195    0.562790     0.006663
CU3981   CU        0.333867    0.424995    0.595041     0.006663
CU3982   CU        0.368724    0.394469    0.591747     0.006663
CU3983   CU        0.370248    0.424295    0.561236     0.006663
NI3984   NI        0.402922    0.395658    0.561602     0.004307
NI3985   NI        0.404546    0.424220    0.592449     0.004307
CU3986   CU        0.434527    0.394330    0.591645     0.006663
NI3987   NI        0.436498    0.425233    0.560347     0.004307
CU3988   CU        0.467846    0.393746    0.559859     0.006663
CU3989   CU        0.469372    0.424576    0.591916     0.006663
CU3990   CU        0.499010    0.392680    0.590176     0.006663
CU3991   CU        0.501137    0.426076    0.560495     0.006663
CU3992   CU        0.533642    0.394652    0.560298     0.006663
CU3993   CU        0.533832    0.424077    0.590969     0.006663
NI3994   NI        0.568558    0.395259    0.590676     0.004307
CU3995   CU        0.565907    0.425675    0.561067     0.006663
CU3996   CU        0.601312    0.395843    0.561720     0.006663
CU3997   CU        0.600389    0.426256    0.592193     0.006663
CU3998   CU        0.633933    0.396169    0.593259     0.006663
CU3999   CU        0.634526    0.427699    0.561083     0.006663
NI4000   NI        0.667833    0.396574    0.564390     0.004307
NI4001   NI        0.667908    0.428404    0.594387     0.004307
NI4002   NI        0.702924    0.395996    0.593049     0.004307
NI4003   NI        0.703351    0.426302    0.560464     0.004307
NI4004   NI        0.735579    0.397037    0.561802     0.004307
NI4005   NI        0.735444    0.426959    0.593673     0.004307
NI4006   NI        0.780373    0.388004    0.603945     0.004307
NI4007   NI        0.767007    0.426659    0.562352     0.004307
NI4008   NI        0.815498    0.389434    0.567601     0.004307
CU4009   CU        0.813149    0.421244    0.603134     0.006663
NI4010   NI        0.846488    0.390350    0.600564     0.004307
CU4011   CU        0.846528    0.425316    0.568410     0.006663
NI4012   NI        0.879980    0.394176    0.567542     0.004307
CU4013   CU        0.878148    0.425511    0.599388     0.006663
NI4014   NI        0.908052    0.427657    0.568083     0.004307
NI4015   NI        0.024104    0.491626    0.565267     0.004307
NI4016   NI        0.056785    0.458917    0.569777     0.004307
NI4017   NI        0.057426    0.489802    0.598743     0.004307
CU4018   CU        0.088444    0.456417    0.600049     0.006663
NI4019   NI        0.086479    0.490781    0.566509     0.004307
NI4020   NI        0.114237    0.459305    0.566501     0.004307
NI4021   NI        0.119838    0.491861    0.602869     0.004307
CU4022   CU        0.145587    0.455158    0.598458     0.006663
NI4023   NI        0.147495    0.495691    0.565857     0.004307
NI4024   NI        0.200004    0.457742    0.560984     0.004307
NI4025   NI        0.201532    0.486625    0.592058     0.004307
NI4026   NI        0.234566    0.457221    0.592278     0.004307
NI4027   NI        0.231671    0.490610    0.559634     0.004307
CU4028   CU        0.267440    0.458546    0.561248     0.006663
CU4029   CU        0.265997    0.489720    0.591862     0.006663
CU4030   CU        0.300993    0.458847    0.590903     0.006663
CU4031   CU        0.298820    0.489268    0.561305     0.006663
CU4032   CU        0.336949    0.456540    0.560809     0.006663
NI4033   NI        0.335999    0.489582    0.592779     0.004307
NI4034   NI        0.367968    0.457486    0.593563     0.004307
CU4035   CU        0.370712    0.488788    0.562142     0.006663
CU4036   CU        0.400264    0.455143    0.561822     0.006663
CU4037   CU        0.401135    0.489042    0.591507     0.006663
CU4038   CU        0.433894    0.454674    0.592002     0.006663
CU4039   CU        0.434992    0.490802    0.560825     0.006663
CU4040   CU        0.468778    0.456332    0.561515     0.006663
CU4041   CU        0.468062    0.486752    0.591013     0.006663
CU4042   CU        0.501603    0.454946    0.593339     0.006663
NI4043   NI        0.501918    0.488344    0.560558     0.004307
CU4044   CU        0.533199    0.454812    0.559799     0.006663
NI4045   NI        0.534366    0.488194    0.590147     0.004307
CU4046   CU        0.566452    0.457044    0.591980     0.006663
CU4047   CU        0.566143    0.490546    0.560795     0.006663
CU4048   CU        0.601875    0.456455    0.559659     0.006663
CU4049   CU        0.601602    0.486263    0.592979     0.006663
CU4050   CU        0.635064    0.458838    0.593551     0.006663
CU4051   CU        0.633015    0.487967    0.560576     0.006663
CU4052   CU        0.666249    0.457067    0.561134     0.006663
CU4053   CU        0.669343    0.488817    0.593506     0.006663
NI4054   NI        0.703143    0.457504    0.591467     0.004307
CU4055   CU        0.702278    0.487366    0.561066     0.006663
NI4056   NI        0.737788    0.459173    0.561574     0.004307
NI4057   NI        0.734735    0.487993    0.595234     0.004307
NI4058   NI        0.784270    0.459865    0.600057     0.004307
CU4059   CU        0.788086    0.493972    0.569443     0.006663
NI4060   NI        0.816402    0.458524    0.566623     0.004307
NI4061   NI        0.812808    0.489523    0.604071     0.004307
CU4062   CU        0.844816    0.455708    0.602444     0.006663
CU4063   CU        0.846387    0.492090    0.570477     0.006663
CU4064   CU        0.876559    0.457880    0.568539     0.006663
NI4065   NI        0.875731    0.491367    0.600947     0.004307
NI4066   NI        0.908220    0.490657    0.569955     0.004307
CU4067   CU        0.057174    0.523579    0.569589     0.006663
NI4068   NI        0.056789    0.556811    0.602147     0.004307
NI4069   NI        0.086913    0.523338    0.601096     0.004307
NI4070   NI        0.086008    0.558527    0.569531     0.004307
NI4071   NI        0.116146    0.524364    0.569318     0.004307
NI4072   NI        0.119136    0.556616    0.602084     0.004307
CU4073   CU        0.149850    0.525276    0.597950     0.006663
NI4074   NI        0.148121    0.555611    0.566747     0.004307
NI4075   NI        0.180901    0.527061    0.566191     0.004307
NI4076   NI        0.181472    0.555884    0.598260     0.004307
NI4077   NI        0.237377    0.519483    0.592458     0.004307
NI4078   NI        0.235555    0.553914    0.565128     0.004307
CU4079   CU        0.268585    0.521406    0.561320     0.006663
CU4080   CU        0.267449    0.551409    0.593482     0.006663
CU4081   CU        0.301308    0.519497    0.592476     0.006663
NI4082   NI        0.299939    0.551976    0.560804     0.004307
CU4083   CU        0.336248    0.518590    0.559895     0.006663
CU4084   CU        0.335253    0.549126    0.591309     0.006663
CU4085   CU        0.369332    0.519785    0.592160     0.006663
CU4086   CU        0.368528    0.551638    0.561370     0.006663
NI4087   NI        0.401603    0.520629    0.560346     0.004307
CU4088   CU        0.400036    0.551395    0.592299     0.006663
CU4089   CU        0.436688    0.520343    0.592276     0.006663
CU4090   CU        0.435937    0.551330    0.559697     0.006663
CU4091   CU        0.469113    0.519993    0.560367     0.006663
CU4092   CU        0.467494    0.551765    0.591235     0.006663
CU4093   CU        0.500343    0.517706    0.590673     0.006663
CU4094   CU        0.502291    0.550918    0.560320     0.006663
NI4095   NI        0.535046    0.520348    0.561167     0.004307
CU4096   CU        0.533313    0.551521    0.592165     0.006663
CU4097   CU        0.569507    0.520542    0.589528     0.006663
CU4098   CU        0.566655    0.550878    0.560976     0.006663
CU4099   CU        0.601793    0.517017    0.560216     0.006663
CU4100   CU        0.602702    0.551679    0.593724     0.006663
CU4101   CU        0.632968    0.521861    0.594072     0.006663
CU4102   CU        0.633462    0.551275    0.561556     0.006663
NI4103   NI        0.667281    0.519928    0.563377     0.004307
NI4104   NI        0.668087    0.550720    0.592262     0.004307
NI4105   NI        0.700795    0.519225    0.593035     0.004307
NI4106   NI        0.714772    0.558419    0.570784     0.004307
NI4107   NI        0.733407    0.519119    0.565109     0.004307
NI4108   NI        0.749839    0.556328    0.601877     0.004307
CU4109   CU        0.783314    0.523212    0.600516     0.006663
NI4110   NI        0.782775    0.557293    0.570614     0.004307
NI4111   NI        0.816791    0.524690    0.568386     0.004307
NI4112   NI        0.812884    0.557551    0.602064     0.004307
NI4113   NI        0.845121    0.523497    0.603165     0.004307
NI4114   NI        0.846468    0.558212    0.569811     0.004307
NI4115   NI        0.877523    0.522216    0.568795     0.004307
NI4116   NI        0.877204    0.553589    0.599417     0.004307
NI4117   NI        0.056919    0.589916    0.565521     0.004307
NI4118   NI        0.087323    0.588554    0.602494     0.004307
NI4119   NI        0.091746    0.620241    0.569601     0.004307
CU4120   CU        0.120103    0.587727    0.570093     0.006663
NI4121   NI        0.123049    0.617843    0.602848     0.004307
NI4122   NI        0.154334    0.588538    0.602796     0.004307
NI4123   NI        0.159776    0.616281    0.565381     0.004307
NI4124   NI        0.202600    0.584385    0.564920     0.004307
NI4125   NI        0.183177    0.621494    0.600768     0.004307
NI4126   NI        0.235148    0.585025    0.594603     0.004307
NI4127   NI        0.232534    0.617238    0.564825     0.004307
CU4128   CU        0.266012    0.585097    0.562182     0.006663
NI4129   NI        0.267930    0.614472    0.592962     0.004307
NI4130   NI        0.300155    0.581838    0.592880     0.004307
NI4131   NI        0.299177    0.613304    0.561061     0.004307
NI4132   NI        0.333257    0.582689    0.562300     0.004307
NI4133   NI        0.333076    0.613517    0.592343     0.004307
CU4134   CU        0.366751    0.582773    0.591657     0.006663
CU4135   CU        0.367197    0.615267    0.561913     0.006663
CU4136   CU        0.402246    0.583775    0.562667     0.006663
CU4137   CU        0.400399    0.613206    0.593616     0.006663
CU4138   CU        0.434407    0.583108    0.591881     0.006663
CU4139   CU        0.434780    0.613129    0.562515     0.006663
NI4140   NI        0.467220    0.583114    0.560904     0.004307
CU4141   CU        0.468205    0.616012    0.593053     0.006663
NI4142   NI        0.502385    0.582895    0.593467     0.004307
CU4143   CU        0.499995    0.614427    0.564262     0.006663
CU4144   CU        0.534154    0.582353    0.562728     0.006663
NI4145   NI        0.534342    0.614250    0.593807     0.004307
CU4146   CU        0.568139    0.581928    0.594268     0.006663
CU4147   CU        0.568049    0.614469    0.562034     0.006663
CU4148   CU        0.601796    0.583745    0.562625     0.006663
NI4149   NI        0.600607    0.615041    0.593956     0.004307
CU4150   CU        0.635372    0.581711    0.592606     0.006663
NI4151   NI        0.633608    0.614078    0.561257     0.004307
NI4152   NI        0.669259    0.581070    0.561358     0.004307
NI4153   NI        0.667531    0.611637    0.590438     0.004307
NI4154   NI        0.716384    0.587524    0.601639     0.004307
NI4155   NI        0.713182    0.623717    0.568345     0.004307
NI4156   NI        0.748703    0.591370    0.569470     0.004307
CU4157   CU        0.745617    0.623330    0.600772     0.006663
NI4158   NI        0.780891    0.590561    0.599755     0.004307
NI4159   NI        0.779122    0.623474    0.570254     0.004307
NI4160   NI        0.813754    0.587876    0.570465     0.004307
NI4161   NI        0.810872    0.620879    0.600097     0.004307
NI4162   NI        0.844849    0.589675    0.602163     0.004307
NI4163   NI        0.844112    0.621879    0.567373     0.004307
NI4164   NI        0.877328    0.589321    0.570157     0.004307
NI4165   NI        0.092055    0.649449    0.602081     0.004307
NI4166   NI        0.104223    0.679236    0.570269     0.004307
NI4167   NI        0.131812    0.646385    0.573265     0.004307
NI4168   NI        0.130820    0.695185    0.600054     0.004307
CU4169   CU        0.165336    0.663651    0.597247     0.006663
CU4170   CU        0.151168    0.686331    0.564084     0.006663
CU4171   CU        0.196594    0.645230    0.570419     0.006663
CU4172   CU        0.206838    0.674662    0.599229     0.006663
NI4173   NI        0.240059    0.647617    0.594770     0.004307
CU4174   CU        0.235852    0.678326    0.565437     0.006663
NI4175   NI        0.268438    0.646107    0.563590     0.004307
CU4176   CU        0.253967    0.689284    0.601259     0.006663
CU4177   CU        0.302221    0.645571    0.591249     0.006663
NI4178   NI        0.299654    0.677411    0.563045     0.004307
NI4179   NI        0.333792    0.644063    0.561893     0.004307
NI4180   NI        0.336208    0.672354    0.596882     0.004307
CU4181   CU        0.370294    0.643829    0.593292     0.006663
NI4182   NI        0.368203    0.677499    0.564379     0.004307
CU4183   CU        0.401872    0.645342    0.563098     0.006663
NI4184   NI        0.402141    0.674596    0.593792     0.004307
CU4185   CU        0.435152    0.647513    0.592476     0.006663
NI4186   NI        0.435420    0.677325    0.563125     0.004307
CU4187   CU        0.465241    0.645827    0.562172     0.006663
NI4188   NI        0.466945    0.679439    0.595769     0.004307
CU4189   CU        0.498611    0.647651    0.594214     0.006663
NI4190   NI        0.499728    0.678310    0.564212     0.004307
CU4191   CU        0.532675    0.647780    0.561434     0.006663
NI4192   NI        0.533609    0.678137    0.593748     0.004307
NI4193   NI        0.566569    0.644949    0.591257     0.004307
CU4194   CU        0.567418    0.677300    0.561002     0.006663
CU4195   CU        0.599965    0.647766    0.560307     0.006663
NI4196   NI        0.611654    0.688318    0.601407     0.004307
NI4197   NI        0.644725    0.656910    0.603592     0.004307
NI4198   NI        0.644043    0.690000    0.568143     0.004307
NI4199   NI        0.668859    0.642501    0.562970     0.004307
CU4200   CU        0.679242    0.686738    0.602777     0.006663
CU4201   CU        0.712706    0.653963    0.600768     0.006663
CU4202   CU        0.714463    0.686879    0.566692     0.006663
NI4203   NI        0.746171    0.655431    0.570265     0.004307
NI4204   NI        0.744228    0.686857    0.601224     0.004307
NI4205   NI        0.778985    0.653388    0.599625     0.004307
NI4206   NI        0.777743    0.686080    0.568510     0.004307
NI4207   NI        0.810923    0.651809    0.568615     0.004307
CU4208   CU        0.811371    0.683353    0.599416     0.006663
NI4209   NI        0.841862    0.651199    0.599729     0.004307
NI4210   NI        0.843406    0.683144    0.568536     0.004307
NI4211   NI        0.125210    0.719350    0.564504     0.004307
NI4212   NI        0.175333    0.703034    0.601360     0.004307
CU4213   CU        0.156904    0.750620    0.566169     0.006663
NI4214   NI        0.188034    0.718127    0.564261     0.004307
CU4215   CU        0.192247    0.748812    0.600061     0.006663
NI4216   NI        0.221305    0.714967    0.602990     0.004307
NI4217   NI        0.223726    0.751934    0.567986     0.004307
NI4218   NI        0.253317    0.718912    0.570611     0.004307
NI4219   NI        0.256416    0.749424    0.600012     0.004307
CU4220   CU        0.288639    0.721944    0.601220     0.006663
NI4221   NI        0.290749    0.753813    0.570205     0.004307
NI4222   NI        0.336301    0.704880    0.565838     0.004307
NI4223   NI        0.325252    0.752864    0.599922     0.004307
NI4224   NI        0.363075    0.723958    0.599709     0.004307
NI4225   NI        0.363180    0.757039    0.568689     0.004307
NI4226   NI        0.395066    0.726275    0.568123     0.004307
NI4227   NI        0.394553    0.755354    0.599616     0.004307
NI4228   NI        0.430147    0.727385    0.601142     0.004307
CU4229   CU        0.428584    0.756346    0.567548     0.006663
NI4230   NI        0.469169    0.710181    0.561552     0.004307
NI4231   NI        0.464512    0.752700    0.605087     0.004307
NI4232   NI        0.502088    0.708484    0.593530     0.004307
NI4233   NI        0.499879    0.740189    0.563107     0.004307
NI4234   NI        0.533696    0.707997    0.560380     0.004307
NI4235   NI        0.539936    0.749441    0.604534     0.004307
NI4236   NI        0.574688    0.720686    0.604716     0.004307
CU4237   CU        0.576167    0.755004    0.569289     0.006663
NI4238   NI        0.608444    0.722671    0.570001     0.004307
NI4239   NI        0.608924    0.749462    0.601874     0.004307
NI4240   NI        0.643637    0.718935    0.601629     0.004307
NI4241   NI        0.643406    0.751662    0.569834     0.004307
NI4242   NI        0.674588    0.721395    0.571152     0.004307
NI4243   NI        0.676301    0.750051    0.602469     0.004307
NI4244   NI        0.709261    0.718958    0.600888     0.004307
CU4245   CU        0.711852    0.748224    0.567601     0.006663
NI4246   NI        0.745204    0.717728    0.565883     0.004307
NI4247   NI        0.744100    0.748662    0.600656     0.004307
NI4248   NI        0.778987    0.717151    0.599435     0.004307
NI4249   NI        0.775408    0.748131    0.569137     0.004307
NI4250   NI        0.810994    0.716456    0.569172     0.004307
CU4251   CU        0.190070    0.779002    0.568616     0.006663
NI4252   NI        0.222213    0.779696    0.600656     0.004307
NI4253   NI        0.223436    0.810898    0.568281     0.004307
NI4254   NI        0.256150    0.780941    0.568883     0.004307
NI4255   NI        0.256667    0.809963    0.598553     0.004307
CU4256   CU        0.292028    0.782600    0.600463     0.006663
NI4257   NI        0.290956    0.811730    0.565654     0.004307
NI4258   NI        0.326992    0.783334    0.568733     0.004307
NI4259   NI        0.325952    0.812500    0.601039     0.004307
NI4260   NI        0.361782    0.785851    0.599690     0.004307
NI4261   NI        0.361486    0.816023    0.570355     0.004307
CU4262   CU        0.394931    0.787595    0.567970     0.006663
NI4263   NI        0.396561    0.815925    0.603162     0.004307
NI4264   NI        0.430787    0.782247    0.601555     0.004307
NI4265   NI        0.431619    0.817268    0.567339     0.004307
CU4266   CU        0.465711    0.790813    0.565757     0.006663
CU4267   CU        0.467483    0.825190    0.595263     0.006663
NI4268   NI        0.498983    0.794013    0.596305     0.004307
NI4269   NI        0.500021    0.820582    0.562186     0.004307
CU4270   CU        0.536124    0.792831    0.567417     0.006663
NI4271   NI        0.542043    0.811298    0.604493     0.004307
NI4272   NI        0.574922    0.783813    0.603026     0.004307
NI4273   NI        0.576299    0.813854    0.568875     0.004307
NI4274   NI        0.610334    0.782799    0.567854     0.004307
CU4275   CU        0.609598    0.812525    0.598770     0.006663
NI4276   NI        0.642518    0.781122    0.600740     0.004307
NI4277   NI        0.644740    0.812536    0.568393     0.004307
NI4278   NI        0.677278    0.783158    0.567933     0.004307
CU4279   CU        0.677251    0.812114    0.602570     0.006663
NI4280   NI        0.709356    0.779657    0.597878     0.004307
NI4281   NI        0.713246    0.809578    0.566355     0.004307
CU4282   CU        0.743000    0.778406    0.567887     0.006663
NI4283   NI        0.326637    0.841916    0.569239     0.004307
NI4284   NI        0.361217    0.844264    0.602419     0.004307
NI4285   NI        0.395956    0.844352    0.564627     0.004307
CU4286   CU        0.474124    0.869182    0.602323     0.006663
CU4287   CU        0.429296    0.875656    0.560360     0.006663
CU4288   CU        0.466913    0.849679    0.562734     0.006663
NI4289   NI        0.509220    0.843007    0.600933     0.004307
CU4290   CU        0.502217    0.908539    0.599357     0.006663
NI4291   NI        0.539364    0.837477    0.570721     0.004307
NI4292   NI        0.573090    0.841859    0.599553     0.004307
NI4293   NI        0.610913    0.842566    0.567366     0.004307
NI4294   NI        0.295132    0.104261    0.629963     0.004307
NI4295   NI        0.325787    0.104474    0.663223     0.004307
NI4296   NI        0.363084    0.103171    0.633090     0.004307
NI4297   NI        0.399573    0.074304    0.633262     0.004307
NI4298   NI        0.396029    0.103013    0.664843     0.004307
NI4299   NI        0.431653    0.103332    0.632921     0.004307
NI4300   NI        0.464095    0.074974    0.633573     0.004307
NI4301   NI        0.466055    0.103350    0.664657     0.004307
NI4302   NI        0.502233    0.102870    0.633171     0.004307
NI4303   NI        0.538900    0.071348    0.631391     0.004307
CU4304   CU        0.536684    0.102448    0.665812     0.006663
NI4305   NI        0.574402    0.101202    0.632417     0.004307
NI4306   NI        0.609572    0.101135    0.665082     0.004307
NI4307   NI        0.643617    0.101694    0.632995     0.004307
CU4308   CU        0.226879    0.166464    0.630762     0.006663
NI4309   NI        0.260024    0.134019    0.630647     0.004307
NI4310   NI        0.261730    0.166383    0.662163     0.004307
NI4311   NI        0.291210    0.134073    0.663907     0.004307
NI4312   NI        0.292650    0.163529    0.629973     0.004307
NI4313   NI        0.327190    0.133368    0.632120     0.004307
NI4314   NI        0.326846    0.163483    0.664223     0.004307
NI4315   NI        0.364700    0.133734    0.665018     0.004307
CU4316   CU        0.360810    0.162766    0.633474     0.006663
NI4317   NI        0.395191    0.132854    0.632675     0.004307
CU4318   CU        0.396130    0.164311    0.665105     0.006663
NI4319   NI        0.429871    0.133349    0.665371     0.004307
NI4320   NI        0.430450    0.164256    0.634314     0.004307
CU4321   CU        0.466079    0.133605    0.634348     0.006663
CU4322   CU        0.464830    0.163014    0.667270     0.006663
CU4323   CU        0.499962    0.132856    0.664415     0.006663
NI4324   NI        0.499921    0.169104    0.640954     0.004307
NI4325   NI        0.541410    0.128997    0.633097     0.004307
NI4326   NI        0.534009    0.171554    0.673352     0.004307
NI4327   NI        0.573906    0.130635    0.664395     0.004307
CU4328   CU        0.576409    0.158933    0.631127     0.006663
NI4329   NI        0.610294    0.130258    0.630979     0.004307
NI4330   NI        0.602288    0.168876    0.667301     0.004307
NI4331   NI        0.642390    0.131526    0.662671     0.004307
NI4332   NI        0.643856    0.160749    0.629726     0.004307
NI4333   NI        0.677676    0.131421    0.630709     0.004307
NI4334   NI        0.675375    0.164061    0.664674     0.004307
NI4335   NI        0.709459    0.164721    0.629741     0.004307
NI4336   NI        0.156604    0.224502    0.629036     0.004307
NI4337   NI        0.192585    0.195753    0.629616     0.004307
NI4338   NI        0.194207    0.226898    0.660367     0.004307
NI4339   NI        0.227575    0.197681    0.661411     0.004307
CU4340   CU        0.225962    0.223291    0.630260     0.006663
CU4341   CU        0.260322    0.196408    0.631777     0.006663
NI4342   NI        0.258739    0.228743    0.665043     0.004307
NI4343   NI        0.294887    0.195253    0.662516     0.004307
NI4344   NI        0.291802    0.227198    0.632061     0.004307
NI4345   NI        0.326689    0.195386    0.632831     0.004307
NI4346   NI        0.329838    0.228123    0.664528     0.004307
NI4347   NI        0.359791    0.193547    0.664771     0.004307
NI4348   NI        0.362146    0.224715    0.635763     0.004307
NI4349   NI        0.394735    0.193456    0.635544     0.004307
NI4350   NI        0.402949    0.236836    0.651683     0.004307
NI4351   NI        0.430392    0.194101    0.665911     0.004307
CU4352   CU        0.438102    0.236457    0.624737     0.006663
NI4353   NI        0.473735    0.206767    0.628697     0.004307
NI4354   NI        0.474004    0.236562    0.658434     0.004307
CU4355   CU        0.508545    0.205450    0.662285     0.006663
NI4356   NI        0.503523    0.238914    0.625812     0.004307
CU4357   CU        0.541346    0.189713    0.634455     0.006663
NI4358   NI        0.538541    0.239118    0.661443     0.004307
NI4359   NI        0.571299    0.203364    0.666131     0.004307
NI4360   NI        0.574788    0.233078    0.636864     0.004307
NI4361   NI        0.603259    0.201009    0.638808     0.004307
NI4362   NI        0.607299    0.235262    0.664420     0.004307
CU4363   CU        0.641529    0.189881    0.661349     0.006663
NI4364   NI        0.635107    0.239770    0.631779     0.004307
NI4365   NI        0.678171    0.193205    0.631798     0.004307
NI4366   NI        0.669646    0.240870    0.662860     0.004307
NI4367   NI        0.709918    0.192727    0.662052     0.004307
NI4368   NI        0.719210    0.222868    0.631054     0.004307
NI4369   NI        0.748905    0.190811    0.628263     0.004307
NI4370   NI        0.740425    0.234603    0.665658     0.004307
NI4371   NI        0.780456    0.227004    0.630333     0.004307
NI4372   NI        0.089653    0.292243    0.632152     0.004307
NI4373   NI        0.120508    0.261188    0.628389     0.004307
NI4374   NI        0.122114    0.295282    0.663544     0.004307
NI4375   NI        0.166294    0.260896    0.644060     0.004307
CU4376   CU        0.152016    0.296538    0.631910     0.006663
CU4377   CU        0.207155    0.260729    0.623959     0.006663
NI4378   NI        0.194020    0.292687    0.647273     0.004307
NI4379   NI        0.221781    0.261605    0.664961     0.004307
NI4380   NI        0.229510    0.296859    0.618188     0.004307
NI4381   NI        0.253258    0.256067    0.630051     0.004307
NI4382   NI        0.259143    0.294023    0.670225     0.004307
NI4383   NI        0.299334    0.275471    0.662423     0.004307
NI4384   NI        0.298577    0.301131    0.625298     0.004307
NI4385   NI        0.324280    0.259353    0.630561     0.004307
NI4386   NI        0.331952    0.301891    0.652164     0.004307
CU4387   CU        0.363199    0.253967    0.667573     0.006663
CU4388   CU        0.368643    0.300917    0.622255     0.006663
NI4389   NI        0.404434    0.268709    0.622827     0.004307
NI4390   NI        0.403765    0.300151    0.652990     0.004307
NI4391   NI        0.436077    0.265911    0.653907     0.004307
CU4392   CU        0.435108    0.297975    0.622713     0.006663
NI4393   NI        0.470117    0.271439    0.625051     0.004307
NI4394   NI        0.467414    0.301110    0.654921     0.004307
NI4395   NI        0.504624    0.269283    0.657522     0.004307
CU4396   CU        0.501134    0.302663    0.624358     0.006663
CU4397   CU        0.536547    0.267243    0.626458     0.006663
NI4398   NI        0.532303    0.302960    0.655223     0.004307
NI4399   NI        0.568469    0.270442    0.659142     0.004307
NI4400   NI        0.568478    0.299931    0.623477     0.004307
NI4401   NI        0.601802    0.267976    0.627278     0.004307
NI4402   NI        0.603637    0.301829    0.651592     0.004307
CU4403   CU        0.634155    0.271018    0.659079     0.006663
NI4404   NI        0.636628    0.298115    0.624429     0.004307
NI4405   NI        0.669872    0.268040    0.629437     0.004307
NI4406   NI        0.668030    0.300094    0.655566     0.004307
NI4407   NI        0.705413    0.271373    0.660143     0.004307
NI4408   NI        0.702622    0.297472    0.624626     0.004307
NI4409   NI        0.740227    0.272835    0.631046     0.004307
NI4410   NI        0.745992    0.295692    0.663574     0.004307
NI4411   NI        0.775912    0.264209    0.662747     0.004307
NI4412   NI        0.780176    0.293682    0.629997     0.004307
NI4413   NI        0.809178    0.263046    0.633188     0.004307
NI4414   NI        0.809299    0.296930    0.661802     0.004307
NI4415   NI        0.844363    0.291210    0.633565     0.004307
NI4416   NI        0.054479    0.324207    0.628212     0.004307
NI4417   NI        0.086962    0.357766    0.632459     0.004307
NI4418   NI        0.118538    0.326063    0.632974     0.004307
NI4419   NI        0.118987    0.355768    0.664972     0.004307
CU4420   CU        0.156012    0.325900    0.666036     0.006663
NI4421   NI        0.150232    0.357134    0.634082     0.004307
CU4422   CU        0.183383    0.329273    0.632602     0.006663
CU4423   CU        0.188373    0.356722    0.665953     0.006663
NI4424   NI        0.221796    0.326452    0.650928     0.004307
NI4425   NI        0.234228    0.362330    0.621870     0.004307
NI4426   NI        0.262947    0.330156    0.623510     0.004307
CU4427   CU        0.268332    0.364604    0.651913     0.006663
NI4428   NI        0.299942    0.333723    0.652262     0.004307
CU4429   CU        0.301549    0.364604    0.622630     0.006663
NI4430   NI        0.332854    0.332702    0.622024     0.004307
NI4431   NI        0.334631    0.362386    0.655005     0.004307
NI4432   NI        0.368145    0.329857    0.654794     0.004307
CU4433   CU        0.367242    0.363971    0.623630     0.006663
CU4434   CU        0.401622    0.332952    0.625508     0.006663
CU4435   CU        0.400038    0.362288    0.656971     0.006663
NI4436   NI        0.436197    0.333843    0.656601     0.004307
CU4437   CU        0.435751    0.363822    0.625266     0.006663
NI4438   NI        0.466777    0.332706    0.623092     0.004307
NI4439   NI        0.466183    0.363588    0.655939     0.004307
CU4440   CU        0.497219    0.332900    0.656589     0.006663
NI4441   NI        0.500929    0.363080    0.623878     0.004307
NI4442   NI        0.535442    0.332530    0.622457     0.004307
CU4443   CU        0.533397    0.361680    0.653600     0.006663
NI4444   NI        0.570240    0.318696    0.671990     0.004307
NI4445   NI        0.568167    0.361324    0.621177     0.004307
CU4446   CU        0.602166    0.330665    0.622351     0.006663
CU4447   CU        0.601559    0.364291    0.652121     0.006663
NI4448   NI        0.639191    0.325424    0.675230     0.004307
NI4449   NI        0.635756    0.364432    0.622607     0.004307
NI4450   NI        0.668356    0.332220    0.624711     0.004307
CU4451   CU        0.670333    0.365618    0.651751     0.006663
NI4452   NI        0.710144    0.324839    0.667048     0.004307
NI4453   NI        0.704665    0.364460    0.624353     0.004307
NI4454   NI        0.746820    0.328020    0.637298     0.004307
NI4455   NI        0.748632    0.358168    0.667676     0.004307
NI4456   NI        0.781071    0.329151    0.665382     0.004307
NI4457   NI        0.780809    0.356236    0.634505     0.004307
NI4458   NI        0.816438    0.328051    0.632630     0.004307
CU4459   CU        0.812566    0.358773    0.664423     0.006663
NI4460   NI        0.845790    0.328912    0.666453     0.004307
NI4461   NI        0.846901    0.358737    0.632039     0.004307
NI4462   NI        0.058669    0.393089    0.630724     0.004307
NI4463   NI        0.087568    0.388065    0.665632     0.004307
CU4464   CU        0.087809    0.424622    0.634380     0.006663
NI4465   NI        0.115201    0.389076    0.633564     0.004307
NI4466   NI        0.119662    0.422084    0.664545     0.004307
NI4467   NI        0.170291    0.391078    0.653116     0.004307
NI4468   NI        0.144893    0.422479    0.627007     0.004307
CU4469   CU        0.203619    0.393767    0.623386     0.006663
NI4470   NI        0.185572    0.424888    0.672167     0.004307
NI4471   NI        0.216201    0.393935    0.669360     0.004307
NI4472   NI        0.234953    0.427486    0.622543     0.004307
NI4473   NI        0.268558    0.395853    0.623524     0.004307
NI4474   NI        0.267666    0.425381    0.653422     0.004307
NI4475   NI        0.300788    0.394770    0.653426     0.004307
CU4476   CU        0.301788    0.426156    0.623602     0.006663
NI4477   NI        0.334815    0.393598    0.624941     0.004307
CU4478   CU        0.333969    0.425178    0.654058     0.006663
NI4479   NI        0.369160    0.395063    0.653912     0.004307
CU4480   CU        0.368788    0.426089    0.622234     0.006663
NI4481   NI        0.401872    0.396566    0.624131     0.004307
CU4482   CU        0.402472    0.426628    0.655504     0.006663
NI4483   NI        0.432642    0.393522    0.655637     0.004307
NI4484   NI        0.436254    0.424321    0.623678     0.004307
CU4485   CU        0.467951    0.393804    0.623255     0.006663
CU4486   CU        0.464783    0.423914    0.655606     0.006663
CU4487   CU        0.500847    0.393390    0.653680     0.006663
CU4488   CU        0.500369    0.424430    0.621802     0.006663
CU4489   CU        0.532483    0.393555    0.624589     0.006663
CU4490   CU        0.532495    0.425265    0.653922     0.006663
NI4491   NI        0.567012    0.393487    0.652155     0.004307
CU4492   CU        0.565071    0.425609    0.622737     0.006663
CU4493   CU        0.598573    0.394746    0.620685     0.006663
CU4494   CU        0.598521    0.426981    0.655363     0.006663
NI4495   NI        0.632667    0.396528    0.650587     0.004307
NI4496   NI        0.632079    0.427100    0.623118     0.004307
CU4497   CU        0.668329    0.396537    0.623016     0.006663
CU4498   CU        0.668070    0.427443    0.652647     0.006663
NI4499   NI        0.701872    0.396943    0.652410     0.004307
NI4500   NI        0.702406    0.428480    0.622991     0.004307
NI4501   NI        0.748310    0.388227    0.635546     0.004307
NI4502   NI        0.734224    0.425706    0.654165     0.004307
NI4503   NI        0.780694    0.388960    0.666223     0.004307
NI4504   NI        0.781005    0.419914    0.635568     0.004307
NI4505   NI        0.811143    0.388161    0.634008     0.004307
NI4506   NI        0.813148    0.421006    0.666205     0.004307
NI4507   NI        0.845697    0.392471    0.662772     0.004307
NI4508   NI        0.845169    0.423178    0.632052     0.004307
NI4509   NI        0.878729    0.391963    0.631969     0.004307
NI4510   NI        0.057975    0.458570    0.630244     0.004307
NI4511   NI        0.089553    0.458073    0.666632     0.004307
CU4512   CU        0.089613    0.488555    0.632847     0.006663
NI4513   NI        0.119744    0.457175    0.635289     0.004307
CU4514   CU        0.120733    0.490980    0.663253     0.006663
NI4515   NI        0.150758    0.454400    0.665759     0.004307
NI4516   NI        0.153054    0.489427    0.634244     0.004307
NI4517   NI        0.204261    0.456272    0.626795     0.004307
NI4518   NI        0.183748    0.495007    0.668031     0.004307
CU4519   CU        0.224211    0.440104    0.661804     0.006663
NI4520   NI        0.233852    0.490313    0.621541     0.004307
NI4521   NI        0.268905    0.457467    0.622659     0.004307
NI4522   NI        0.270544    0.488921    0.653050     0.004307
NI4523   NI        0.299299    0.455613    0.653131     0.004307
CU4524   CU        0.300620    0.489033    0.621900     0.006663
CU4525   CU        0.334021    0.457137    0.622002     0.006663
NI4526   NI        0.333209    0.490126    0.652752     0.004307
NI4527   NI        0.367617    0.454067    0.652723     0.004307
NI4528   NI        0.369310    0.487590    0.624852     0.004307
CU4529   CU        0.402016    0.455952    0.623878     0.006663
CU4530   CU        0.403502    0.487097    0.656106     0.006663
CU4531   CU        0.435305    0.455222    0.653829     0.006663
CU4532   CU        0.433026    0.488347    0.623074     0.006663
NI4533   NI        0.467940    0.455470    0.623154     0.004307
CU4534   CU        0.467070    0.486918    0.653926     0.006663
NI4535   NI        0.499089    0.456174    0.653734     0.004307
CU4536   CU        0.501144    0.486955    0.624063     0.006663
CU4537   CU        0.532236    0.455258    0.623001     0.006663
CU4538   CU        0.532185    0.487328    0.654914     0.006663
CU4539   CU        0.564933    0.458083    0.655393     0.006663
CU4540   CU        0.567266    0.487647    0.622583     0.006663
NI4541   NI        0.599511    0.457271    0.623617     0.004307
NI4542   NI        0.600098    0.488980    0.652250     0.004307
CU4543   CU        0.633733    0.457290    0.653367     0.006663
NI4544   NI        0.634319    0.488346    0.623567     0.004307
CU4545   CU        0.668275    0.459019    0.623548     0.006663
NI4546   NI        0.666426    0.488334    0.655257     0.004307
NI4547   NI        0.700994    0.456413    0.653780     0.004307
NI4548   NI        0.700812    0.487279    0.624210     0.004307
NI4549   NI        0.736812    0.458120    0.625206     0.004307
NI4550   NI        0.734627    0.488286    0.653283     0.004307
NI4551   NI        0.782636    0.456963    0.665243     0.004307
CU4552   CU        0.782684    0.492130    0.635544     0.006663
NI4553   NI        0.813793    0.456148    0.633858     0.004307
CU4554   CU        0.813882    0.490178    0.665745     0.006663
NI4555   NI        0.843543    0.458782    0.663978     0.004307
NI4556   NI        0.845618    0.491071    0.633712     0.004307
NI4557   NI        0.908199    0.460271    0.598037     0.004307
NI4558   NI        0.056328    0.523454    0.633547     0.004307
NI4559   NI        0.089410    0.522605    0.664216     0.004307
NI4560   NI        0.089077    0.555057    0.633178     0.004307
NI4561   NI        0.120803    0.522293    0.634918     0.004307
NI4562   NI        0.119636    0.555472    0.664705     0.004307
NI4563   NI        0.152121    0.524104    0.668292     0.004307
NI4564   NI        0.153365    0.557891    0.633897     0.004307
NI4565   NI        0.182609    0.523626    0.635009     0.004307
NI4566   NI        0.187771    0.555198    0.665897     0.004307
NI4567   NI        0.216958    0.522845    0.669420     0.004307
NI4568   NI        0.236967    0.550322    0.623025     0.004307
CU4569   CU        0.267907    0.519832    0.625087     0.006663
NI4570   NI        0.268355    0.551937    0.652922     0.004307
NI4571   NI        0.301256    0.521199    0.654088     0.004307
NI4572   NI        0.300931    0.552452    0.623285     0.004307
CU4573   CU        0.336958    0.519717    0.623102     0.006663
CU4574   CU        0.337156    0.554676    0.654405     0.006663
CU4575   CU        0.368984    0.519942    0.655403     0.006663
NI4576   NI        0.368941    0.551986    0.623540     0.004307
CU4577   CU        0.401315    0.520951    0.622958     0.006663
NI4578   NI        0.401932    0.551739    0.654705     0.004307
CU4579   CU        0.433019    0.520101    0.653860     0.006663
NI4580   NI        0.435012    0.552786    0.622455     0.004307
NI4581   NI        0.466964    0.519108    0.623164     0.004307
CU4582   CU        0.466115    0.551420    0.653974     0.006663
NI4583   NI        0.501259    0.517302    0.654958     0.004307
CU4584   CU        0.499093    0.548043    0.622801     0.006663
CU4585   CU        0.533325    0.517566    0.621913     0.006663
NI4586   NI        0.534702    0.550947    0.653171     0.004307
NI4587   NI        0.568099    0.516925    0.654336     0.004307
CU4588   CU        0.568816    0.548383    0.624493     0.006663
CU4589   CU        0.602158    0.519713    0.624004     0.006663
CU4590   CU        0.602148    0.550502    0.655431     0.006663
NI4591   NI        0.634990    0.518941    0.653786     0.004307
CU4592   CU        0.635639    0.552110    0.623112     0.006663
NI4593   NI        0.669541    0.518311    0.623299     0.004307
NI4594   NI        0.669751    0.551435    0.652942     0.004307
NI4595   NI        0.704447    0.520382    0.652541     0.004307
NI4596   NI        0.712683    0.556787    0.632525     0.004307
CU4597   CU        0.747816    0.526259    0.634570     0.006663
CU4598   CU        0.745981    0.556861    0.666177     0.006663
NI4599   NI        0.780373    0.523634    0.668358     0.004307
NI4600   NI        0.780270    0.557023    0.632870     0.004307
NI4601   NI        0.813307    0.523334    0.634942     0.004307
NI4602   NI        0.813098    0.555570    0.666401     0.004307
NI4603   NI        0.883313    0.524296    0.695119     0.004307
NI4604   NI        0.845900    0.556564    0.633611     0.004307
NI4605   NI        0.876048    0.522768    0.633169     0.004307
NI4606   NI        0.090606    0.587675    0.662887     0.004307
NI4607   NI        0.088081    0.618813    0.632024     0.004307
NI4608   NI        0.120007    0.587196    0.632482     0.004307
NI4609   NI        0.121955    0.620003    0.666624     0.004307
NI4610   NI        0.155627    0.588380    0.665056     0.004307
NI4611   NI        0.152864    0.618697    0.634842     0.004307
NI4612   NI        0.185997    0.587048    0.633022     0.004307
NI4613   NI        0.187560    0.622528    0.662620     0.004307
NI4614   NI        0.220303    0.592278    0.665864     0.004307
CU4615   CU        0.238119    0.617322    0.625593     0.006663
NI4616   NI        0.268937    0.583287    0.622540     0.004307
NI4617   NI        0.256819    0.620514    0.666807     0.004307
NI4618   NI        0.300301    0.583116    0.654213     0.004307
NI4619   NI        0.301510    0.613497    0.623648     0.004307
NI4620   NI        0.333499    0.582370    0.623491     0.004307
CU4621   CU        0.333280    0.613834    0.651829     0.006663
NI4622   NI        0.368418    0.584958    0.654950     0.004307
CU4623   CU        0.367806    0.612967    0.624309     0.006663
CU4624   CU        0.401278    0.583519    0.623402     0.006663
NI4625   NI        0.400934    0.615834    0.655062     0.004307
NI4626   NI        0.432832    0.583953    0.654549     0.004307
CU4627   CU        0.434892    0.614361    0.625257     0.006663
CU4628   CU        0.468201    0.581984    0.622933     0.006663
NI4629   NI        0.467612    0.615149    0.655482     0.004307
NI4630   NI        0.498139    0.580503    0.653700     0.004307
CU4631   CU        0.499125    0.613589    0.625219     0.006663
CU4632   CU        0.534248    0.584325    0.622805     0.006663
NI4633   NI        0.533095    0.612270    0.654816     0.004307
CU4634   CU        0.567328    0.581719    0.654115     0.006663
CU4635   CU        0.567284    0.613216    0.622660     0.006663
CU4636   CU        0.601844    0.582618    0.623993     0.006663
CU4637   CU        0.601237    0.614131    0.652889     0.006663
NI4638   NI        0.633312    0.582696    0.654676     0.004307
NI4639   NI        0.635687    0.613851    0.622936     0.004307
NI4640   NI        0.672691    0.583255    0.623427     0.004307
NI4641   NI        0.676806    0.623168    0.666943     0.004307
NI4642   NI        0.713832    0.588840    0.665235     0.004307
NI4643   NI        0.713281    0.624134    0.635196     0.004307
CU4644   CU        0.745769    0.587997    0.630619     0.006663
NI4645   NI        0.745449    0.618311    0.664693     0.004307
CU4646   CU        0.779170    0.588995    0.664590     0.006663
CU4647   CU        0.778118    0.621611    0.632307     0.006663
NI4648   NI        0.811070    0.587988    0.632027     0.004307
NI4649   NI        0.809764    0.619935    0.661876     0.004307
NI4650   NI        0.843846    0.587560    0.664930     0.004307
NI4651   NI        0.845002    0.621812    0.629498     0.004307
NI4652   NI        0.121387    0.648557    0.634263     0.004307
CU4653   CU        0.155983    0.650879    0.663479     0.006663
NI4654   NI        0.154226    0.682043    0.634961     0.004307
NI4655   NI        0.188668    0.652762    0.632965     0.004307
NI4656   NI        0.190767    0.682762    0.662730     0.004307
NI4657   NI        0.223469    0.653738    0.666181     0.004307
NI4658   NI        0.225761    0.688959    0.635364     0.004307
NI4659   NI        0.255686    0.655986    0.635227     0.004307
NI4660   NI        0.256993    0.685648    0.665872     0.004307
NI4661   NI        0.291262    0.656073    0.665434     0.004307
NI4662   NI        0.290360    0.685604    0.634947     0.004307
NI4663   NI        0.324640    0.656160    0.633649     0.004307
CU4664   CU        0.325788    0.689374    0.664483     0.006663
NI4665   NI        0.366548    0.646820    0.651913     0.004307
NI4666   NI        0.356716    0.686232    0.634135     0.004307
CU4667   CU        0.403387    0.645078    0.624777     0.006663
NI4668   NI        0.400508    0.679231    0.655259     0.004307
CU4669   CU        0.435089    0.647297    0.657515     0.006663
NI4670   NI        0.435388    0.675911    0.628754     0.004307
NI4671   NI        0.468039    0.648040    0.625609     0.004307
NI4672   NI        0.469577    0.680194    0.654318     0.004307
NI4673   NI        0.501310    0.646061    0.655010     0.004307
NI4674   NI        0.502293    0.677966    0.625587     0.004307
NI4675   NI        0.532375    0.644190    0.624173     0.004307
NI4676   NI        0.535095    0.677101    0.651733     0.004307
NI4677   NI        0.567781    0.648476    0.652669     0.004307
NI4678   NI        0.575852    0.688452    0.637425     0.004307
NI4679   NI        0.609692    0.658403    0.632096     0.004307
CU4680   CU        0.611417    0.686902    0.665717     0.006663
NI4681   NI        0.643261    0.654532    0.662920     0.004307
NI4682   NI        0.643750    0.686489    0.634919     0.004307
CU4683   CU        0.681593    0.653650    0.631679     0.006663
NI4684   NI        0.678015    0.683965    0.664620     0.004307
CU4685   CU        0.711108    0.653115    0.667409     0.006663
NI4686   NI        0.711685    0.685592    0.633337     0.004307
NI4687   NI        0.744343    0.654948    0.632916     0.004307
CU4688   CU        0.742146    0.687377    0.663495     0.006663
NI4689   NI        0.777114    0.651788    0.666230     0.004307
CU4690   CU        0.777219    0.685898    0.630175     0.006663
NI4691   NI        0.810588    0.653174    0.629190     0.004307
NI4692   NI        0.191292    0.721500    0.635829     0.004307
CU4693   CU        0.221819    0.716337    0.665582     0.006663
NI4694   NI        0.226427    0.749579    0.631524     0.004307
NI4695   NI        0.258494    0.717642    0.633387     0.004307
NI4696   NI        0.260485    0.750414    0.661978     0.004307
NI4697   NI        0.293690    0.718468    0.662691     0.004307
CU4698   CU        0.291729    0.750895    0.630452     0.006663
NI4699   NI        0.327144    0.720703    0.629857     0.004307
NI4700   NI        0.326429    0.749331    0.663203     0.004307
NI4701   NI        0.361561    0.720815    0.664008     0.004307
NI4702   NI        0.361757    0.752603    0.631735     0.004307
NI4703   NI        0.395028    0.722416    0.631792     0.004307
CU4704   CU        0.394839    0.752666    0.662443     0.006663
CU4705   CU        0.426599    0.720556    0.665986     0.006663
NI4706   NI        0.430545    0.753552    0.634929     0.004307
NI4707   NI        0.469611    0.710626    0.622981     0.004307
CU4708   CU        0.467134    0.751062    0.665542     0.006663
NI4709   NI        0.503193    0.710908    0.652605     0.004307
NI4710   NI        0.502381    0.752598    0.636301     0.004307
NI4711   NI        0.535233    0.711717    0.624511     0.004307
NI4712   NI        0.537752    0.752892    0.667804     0.004307
NI4713   NI        0.575272    0.720012    0.665925     0.004307
NI4714   NI        0.573223    0.750460    0.634803     0.004307
NI4715   NI        0.609727    0.717096    0.633495     0.004307
NI4716   NI        0.607973    0.749761    0.666160     0.004307
CU4717   CU        0.640719    0.717788    0.663634     0.006663
NI4718   NI        0.641566    0.747379    0.633177     0.004307
CU4719   CU        0.678031    0.718506    0.631196     0.006663
NI4720   NI        0.676443    0.749639    0.663399     0.004307
NI4721   NI        0.709474    0.719300    0.664611     0.004307
NI4722   NI        0.710643    0.750513    0.631858     0.004307
NI4723   NI        0.740081    0.717842    0.631317     0.004307
NI4724   NI        0.258301    0.781844    0.631816     0.004307
NI4725   NI        0.291672    0.780652    0.662055     0.004307
CU4726   CU        0.289968    0.812261    0.632615     0.006663
CU4727   CU        0.326846    0.784057    0.634001     0.006663
NI4728   NI        0.325570    0.811670    0.664232     0.004307
NI4729   NI        0.361296    0.782833    0.664386     0.004307
NI4730   NI        0.360740    0.813519    0.632499     0.004307
NI4731   NI        0.394896    0.784422    0.632829     0.004307
NI4732   NI        0.397440    0.811134    0.664777     0.004307
NI4733   NI        0.431969    0.780777    0.666597     0.004307
CU4734   CU        0.431636    0.813286    0.636796     0.006663
NI4735   NI        0.468042    0.782517    0.635189     0.004307
NI4736   NI        0.471494    0.809885    0.665632     0.004307
NI4737   NI        0.501629    0.780460    0.666999     0.004307
NI4738   NI        0.505142    0.811545    0.635499     0.004307
NI4739   NI        0.537976    0.780529    0.635513     0.004307
NI4740   NI        0.539479    0.811066    0.663360     0.004307
NI4741   NI        0.572365    0.781632    0.665141     0.004307
NI4742   NI        0.574256    0.811882    0.634221     0.004307
NI4743   NI        0.608741    0.781746    0.631919     0.004307
NI4744   NI        0.608582    0.811264    0.663178     0.004307
CU4745   CU        0.642950    0.779195    0.661209     0.006663
NI4746   NI        0.642908    0.810371    0.633326     0.004307
NI4747   NI        0.676486    0.778291    0.630529     0.004307
NI4748   NI        0.389805    0.843879    0.634041     0.004307
NI4749   NI        0.468651    0.840421    0.634386     0.004307
NI4750   NI        0.541710    0.840761    0.634378     0.004307
NI4751   NI        0.430049    0.104005    0.697013     0.004307
NI4752   NI        0.501261    0.104302    0.695551     0.004307
NI4753   NI        0.295669    0.164520    0.694138     0.004307
NI4754   NI        0.326441    0.131874    0.694182     0.004307
NI4755   NI        0.327937    0.166877    0.727176     0.004307
NI4756   NI        0.360586    0.133650    0.723449     0.004307
CU4757   CU        0.361448    0.163956    0.695787     0.006663
CU4758   CU        0.396699    0.133739    0.694295     0.006663
CU4759   CU        0.395864    0.163980    0.727709     0.006663
CU4760   CU        0.429981    0.135602    0.726214     0.006663
CU4761   CU        0.430059    0.163768    0.696982     0.006663
NI4762   NI        0.466759    0.133515    0.697336     0.004307
NI4763   NI        0.465035    0.162614    0.728748     0.004307
NI4764   NI        0.503028    0.131272    0.727351     0.004307
NI4765   NI        0.501280    0.163611    0.702337     0.004307
NI4766   NI        0.535292    0.131550    0.697398     0.004307
CU4767   CU        0.537092    0.163022    0.729462     0.006663
NI4768   NI        0.572196    0.132408    0.732888     0.004307
CU4769   CU        0.569545    0.177120    0.700568     0.006663
NI4770   NI        0.608168    0.131730    0.695675     0.004307
NI4771   NI        0.604719    0.162283    0.727527     0.004307
NI4772   NI        0.640778    0.164117    0.695495     0.004307
NI4773   NI        0.226627    0.229363    0.695953     0.004307
NI4774   NI        0.261252    0.199422    0.696716     0.004307
NI4775   NI        0.262813    0.228404    0.726834     0.004307
NI4776   NI        0.296891    0.196594    0.725976     0.004307
CU4777   CU        0.293518    0.230347    0.695677     0.006663
NI4778   NI        0.327079    0.196551    0.693475     0.004307
NI4779   NI        0.328875    0.227577    0.728282     0.004307
NI4780   NI        0.363101    0.194902    0.725247     0.004307
CU4781   CU        0.361444    0.225338    0.697105     0.006663
NI4782   NI        0.398398    0.195868    0.697316     0.004307
NI4783   NI        0.395119    0.229122    0.729573     0.004307
NI4784   NI        0.431672    0.193455    0.729436     0.004307
CU4785   CU        0.430549    0.224080    0.700782     0.006663
NI4786   NI        0.464221    0.193322    0.700205     0.004307
NI4787   NI        0.463971    0.224696    0.731369     0.004307
CU4788   CU        0.499545    0.195690    0.732232     0.006663
CU4789   CU        0.505090    0.238901    0.691098     0.006663
CU4790   CU        0.538078    0.207697    0.696606     0.006663
NI4791   NI        0.541994    0.229627    0.735280     0.004307
NI4792   NI        0.574914    0.200050    0.733243     0.004307
CU4793   CU        0.567914    0.242762    0.692697     0.006663
NI4794   NI        0.600271    0.211171    0.698987     0.004307
CU4795   CU        0.610048    0.231468    0.732401     0.006663
NI4796   NI        0.637508    0.197995    0.727614     0.004307
NI4797   NI        0.642120    0.231100    0.699158     0.004307
NI4798   NI        0.671383    0.200275    0.695303     0.004307
NI4799   NI        0.674371    0.228008    0.727112     0.004307
NI4800   NI        0.710694    0.234037    0.701728     0.004307
NI4801   NI        0.158069    0.292593    0.696902     0.004307
NI4802   NI        0.193552    0.263295    0.698797     0.004307
NI4803   NI        0.191337    0.294609    0.726345     0.004307
NI4804   NI        0.229062    0.262642    0.727631     0.004307
CU4805   CU        0.227053    0.292985    0.699904     0.006663
NI4806   NI        0.259618    0.261001    0.698496     0.004307
NI4807   NI        0.259691    0.293690    0.729476     0.004307
CU4808   CU        0.295190    0.260936    0.728197     0.006663
NI4809   NI        0.292261    0.292759    0.699844     0.004307
NI4810   NI        0.325879    0.262335    0.694397     0.004307
CU4811   CU        0.328491    0.292296    0.728197     0.006663
NI4812   NI        0.365803    0.265009    0.713979     0.004307
NI4813   NI        0.368171    0.300633    0.683434     0.004307
NI4814   NI        0.401384    0.269384    0.683206     0.004307
NI4815   NI        0.394765    0.299093    0.716890     0.004307
NI4816   NI        0.431312    0.255558    0.732254     0.004307
NI4817   NI        0.433105    0.298148    0.687948     0.004307
NI4818   NI        0.469066    0.270229    0.687302     0.004307
NI4819   NI        0.470353    0.300691    0.717836     0.004307
CU4820   CU        0.501805    0.271247    0.718411     0.006663
NI4821   NI        0.500327    0.300995    0.684592     0.004307
NI4822   NI        0.534302    0.273026    0.689319     0.004307
CU4823   CU        0.539780    0.292351    0.733566     0.006663
NI4824   NI        0.575544    0.259021    0.733627     0.004307
CU4825   CU        0.573395    0.288048    0.702033     0.006663
NI4826   NI        0.607994    0.260988    0.700393     0.004307
NI4827   NI        0.605902    0.291988    0.732573     0.004307
NI4828   NI        0.643960    0.262658    0.730572     0.004307
NI4829   NI        0.642348    0.292623    0.700168     0.004307
NI4830   NI        0.676282    0.262712    0.699713     0.004307
NI4831   NI        0.674864    0.295047    0.732150     0.004307
NI4832   NI        0.708285    0.264845    0.728439     0.004307
CU4833   CU        0.707893    0.294472    0.698574     0.006663
NI4834   NI        0.741986    0.265705    0.695082     0.004307
NI4835   NI        0.742088    0.297161    0.727089     0.004307
NI4836   NI        0.777421    0.297648    0.693233     0.004307
NI4837   NI        0.125182    0.324288    0.697986     0.004307
NI4838   NI        0.124944    0.356482    0.726732     0.004307
NI4839   NI        0.158436    0.325370    0.727414     0.004307
NI4840   NI        0.155154    0.356873    0.697397     0.004307
CU4841   CU        0.188007    0.327047    0.697345     0.006663
CU4842   CU        0.188398    0.358195    0.729027     0.006663
NI4843   NI        0.224097    0.327328    0.727194     0.004307
NI4844   NI        0.219349    0.359781    0.698461     0.004307
NI4845   NI        0.260145    0.325612    0.703106     0.004307
NI4846   NI        0.256667    0.358259    0.731283     0.004307
NI4847   NI        0.293114    0.325495    0.732342     0.004307
NI4848   NI        0.300106    0.362097    0.682437     0.004307
NI4849   NI        0.333792    0.331541    0.684131     0.004307
NI4850   NI        0.326145    0.357567    0.734577     0.004307
NI4851   NI        0.359760    0.324638    0.735753     0.004307
NI4852   NI        0.369584    0.363796    0.685477     0.004307
CU4853   CU        0.402016    0.330386    0.686245     0.006663
NI4854   NI        0.400890    0.360163    0.717817     0.004307
NI4855   NI        0.432173    0.326617    0.718037     0.004307
NI4856   NI        0.433461    0.361270    0.687840     0.004307
CU4857   CU        0.465118    0.330417    0.688277     0.006663
NI4858   NI        0.468188    0.361389    0.716723     0.004307
NI4859   NI        0.504797    0.325118    0.737081     0.004307
NI4860   NI        0.498750    0.363838    0.686394     0.004307
NI4861   NI        0.531801    0.335148    0.686476     0.004307
NI4862   NI        0.533228    0.363446    0.717041     0.004307
NI4863   NI        0.572884    0.324253    0.737304     0.004307
CU4864   CU        0.572954    0.350970    0.699691     0.006663
NI4865   NI        0.605615    0.323451    0.704616     0.004307
NI4866   NI        0.606041    0.352827    0.737301     0.004307
NI4867   NI        0.642485    0.325947    0.734199     0.004307
NI4868   NI        0.636687    0.367900    0.679799     0.004307
NI4869   NI        0.676800    0.326655    0.700895     0.004307
NI4870   NI        0.677891    0.356646    0.735365     0.004307
CU4871   CU        0.709429    0.325282    0.729241     0.006663
NI4872   NI        0.710209    0.357974    0.702598     0.004307
NI4873   NI        0.742690    0.327953    0.696205     0.004307
NI4874   NI        0.745706    0.358090    0.728748     0.004307
NI4875   NI        0.779327    0.326149    0.726293     0.004307
NI4876   NI        0.781743    0.358878    0.696847     0.004307
NI4877   NI        0.811812    0.327370    0.696264     0.004307
CU4878   CU        0.811089    0.360726    0.728850     0.006663
NI4879   NI        0.088382    0.416554    0.696673     0.004307
NI4880   NI        0.122430    0.389419    0.697550     0.004307
NI4881   NI        0.119746    0.419697    0.728600     0.004307
CU4882   CU        0.155934    0.390880    0.729419     0.006663
CU4883   CU        0.154617    0.424871    0.700026     0.006663
CU4884   CU        0.187101    0.392033    0.699674     0.006663
NI4885   NI        0.187067    0.423858    0.729661     0.004307
CU4886   CU        0.222101    0.390776    0.730544     0.006663
NI4887   NI        0.219028    0.421755    0.700468     0.004307
NI4888   NI        0.256311    0.388610    0.700889     0.004307
NI4889   NI        0.254804    0.426070    0.729280     0.004307
NI4890   NI        0.290749    0.391985    0.732071     0.004307
NI4891   NI        0.289492    0.424630    0.701207     0.004307
NI4892   NI        0.336563    0.394894    0.683586     0.004307
NI4893   NI        0.326771    0.423753    0.733813     0.004307
NI4894   NI        0.360065    0.388106    0.736821     0.004307
NI4895   NI        0.369811    0.422936    0.685706     0.004307
NI4896   NI        0.401926    0.393630    0.687973     0.004307
NI4897   NI        0.402759    0.423625    0.715852     0.004307
NI4898   NI        0.433806    0.391593    0.717429     0.004307
NI4899   NI        0.435796    0.424982    0.685513     0.004307
NI4900   NI        0.468617    0.394192    0.688870     0.004307
CU4901   CU        0.470623    0.426148    0.716513     0.006663
NI4902   NI        0.499696    0.393116    0.717776     0.004307
NI4903   NI        0.500159    0.426874    0.686078     0.004307
NI4904   NI        0.531891    0.394807    0.684848     0.004307
NI4905   NI        0.532990    0.427920    0.716449     0.004307
NI4906   NI        0.574701    0.387038    0.737572     0.004307
NI4907   NI        0.566140    0.424734    0.684151     0.004307
NI4908   NI        0.602613    0.396052    0.684218     0.004307
NI4909   NI        0.600628    0.424770    0.712844     0.004307
NI4910   NI        0.636852    0.396973    0.710126     0.004307
CU4911   CU        0.634587    0.427736    0.682834     0.006663
NI4912   NI        0.668377    0.397686    0.682017     0.004307
CU4913   CU        0.678930    0.422789    0.738883     0.006663
NI4914   NI        0.712057    0.391089    0.730814     0.004307
CU4915   CU        0.700451    0.427297    0.683311     0.006663
CU4916   CU        0.746727    0.387776    0.698763     0.006663
CU4917   CU        0.746982    0.423764    0.731714     0.006663
CU4918   CU        0.780249    0.390155    0.728578     0.006663
CU4919   CU        0.781535    0.423762    0.698766     0.006663
CU4920   CU        0.813568    0.391941    0.698222     0.006663
NI4921   NI        0.812612    0.422916    0.728900     0.004307
NI4922   NI        0.845856    0.424240    0.696752     0.004307
NI4923   NI        0.090977    0.491796    0.693840     0.004307
NI4924   NI        0.121119    0.457386    0.696860     0.004307
NI4925   NI        0.122339    0.489237    0.726992     0.004307
NI4926   NI        0.155368    0.457757    0.727833     0.004307
NI4927   NI        0.152286    0.488352    0.696084     0.004307
NI4928   NI        0.185799    0.457281    0.698025     0.004307
NI4929   NI        0.217068    0.493618    0.700622     0.004307
NI4930   NI        0.220890    0.455627    0.729297     0.004307
NI4931   NI        0.225524    0.481428    0.660430     0.004307
NI4932   NI        0.265171    0.456987    0.680948     0.004307
CU4933   CU        0.255376    0.488946    0.730752     0.006663
NI4934   NI        0.291294    0.454657    0.732865     0.004307
NI4935   NI        0.301243    0.487659    0.683879     0.004307
NI4936   NI        0.323260    0.455323    0.703857     0.004307
NI4937   NI        0.326980    0.492001    0.728456     0.004307
NI4938   NI        0.354168    0.455596    0.732281     0.004307
NI4939   NI        0.367098    0.487847    0.683744     0.004307
NI4940   NI        0.400244    0.455969    0.687253     0.004307
NI4941   NI        0.399790    0.490477    0.737483     0.004307
NI4942   NI        0.432299    0.458401    0.736434     0.004307
CU4943   CU        0.435636    0.487729    0.684805     0.006663
CU4944   CU        0.468087    0.454602    0.685152     0.006663
CU4945   CU        0.466716    0.490352    0.735506     0.006663
NI4946   NI        0.501812    0.456117    0.736287     0.004307
NI4947   NI        0.496796    0.487254    0.686319     0.004307
CU4948   CU        0.533363    0.459000    0.685376     0.006663
NI4949   NI        0.534095    0.486423    0.717408     0.004307
NI4950   NI        0.568889    0.454455    0.714121     0.004307
CU4951   CU        0.564971    0.488365    0.684907     0.006663
CU4952   CU        0.599790    0.456965    0.683963     0.006663
NI4953   NI        0.599834    0.485810    0.714808     0.004307
NI4954   NI        0.632726    0.454728    0.715162     0.004307
CU4955   CU        0.634535    0.485670    0.686686     0.006663
NI4956   NI        0.666511    0.455419    0.684375     0.004307
NI4957   NI        0.678998    0.488902    0.732322     0.004307
NI4958   NI        0.712796    0.456009    0.733244     0.004307
NI4959   NI        0.702734    0.488210    0.682853     0.004307
NI4960   NI        0.752042    0.457260    0.699990     0.004307
CU4961   CU        0.742619    0.492147    0.728399     0.006663
NI4962   NI        0.782902    0.456741    0.729525     0.004307
CU4963   CU        0.781074    0.490486    0.697122     0.006663
NI4964   NI        0.812556    0.454542    0.696142     0.004307
NI4965   NI        0.812976    0.489133    0.725875     0.004307
NI4966   NI        0.845770    0.523699    0.664158     0.004307
NI4967   NI        0.121982    0.523508    0.699124     0.004307
NI4968   NI        0.121400    0.555633    0.726649     0.004307
NI4969   NI        0.153031    0.524367    0.731374     0.004307
NI4970   NI        0.155422    0.556279    0.697537     0.004307
CU4971   CU        0.186052    0.525079    0.698099     0.006663
NI4972   NI        0.190553    0.557164    0.727604     0.004307
NI4973   NI        0.221726    0.523776    0.730396     0.004307
NI4974   NI        0.223475    0.555618    0.699264     0.004307
NI4975   NI        0.254078    0.521178    0.701882     0.004307
NI4976   NI        0.257637    0.554842    0.730396     0.004307
NI4977   NI        0.289587    0.524592    0.731076     0.004307
CU4978   CU        0.290713    0.557218    0.700657     0.006663
NI4979   NI        0.321261    0.524482    0.700757     0.004307
CU4980   CU        0.322262    0.555767    0.732735     0.006663
NI4981   NI        0.362842    0.520918    0.734974     0.004307
NI4982   NI        0.369728    0.551135    0.684502     0.004307
NI4983   NI        0.401490    0.521868    0.686564     0.004307
NI4984   NI        0.402303    0.549224    0.718180     0.004307
NI4985   NI        0.433004    0.523521    0.736961     0.004307
NI4986   NI        0.434607    0.553190    0.687809     0.004307
CU4987   CU        0.466165    0.520353    0.683814     0.006663
NI4988   NI        0.467499    0.553291    0.714789     0.004307
NI4989   NI        0.497891    0.519066    0.715045     0.004307
CU4990   CU        0.499383    0.550020    0.683734     0.006663
CU4991   CU        0.533207    0.518892    0.686980     0.006663
NI4992   NI        0.538981    0.558680    0.735836     0.004307
NI4993   NI        0.570021    0.515961    0.715417     0.004307
NI4994   NI        0.567307    0.547106    0.682121     0.004307
NI4995   NI        0.600365    0.517692    0.684010     0.004307
NI4996   NI        0.611248    0.555531    0.735972     0.004307
NI4997   NI        0.643273    0.523895    0.733703     0.004307
NI4998   NI        0.644732    0.554432    0.705801     0.004307
NI4999   NI        0.668798    0.520761    0.684856     0.004307
NI5000   NI        0.680294    0.554312    0.731557     0.004307
CU5001   CU        0.713433    0.524063    0.730381     0.006663
NI5002   NI        0.715523    0.555851    0.697492     0.004307
NI5003   NI        0.747793    0.523510    0.699070     0.004307
NI5004   NI        0.746272    0.557422    0.730887     0.004307
CU5005   CU        0.781113    0.522587    0.728282     0.006663
CU5006   CU        0.778623    0.555213    0.697101     0.006663
CU5007   CU        0.811612    0.524419    0.699336     0.006663
CU5008   CU        0.810732    0.556495    0.727201     0.006663
NI5009   NI        0.125628    0.589108    0.698137     0.004307
NI5010   NI        0.159456    0.589713    0.728968     0.004307
NI5011   NI        0.157031    0.620458    0.694941     0.004307
NI5012   NI        0.185648    0.588564    0.696318     0.004307
NI5013   NI        0.192838    0.620477    0.729033     0.004307
CU5014   CU        0.224470    0.586661    0.727792     0.006663
NI5015   NI        0.224527    0.622599    0.695822     0.004307
NI5016   NI        0.258808    0.588391    0.697314     0.004307
NI5017   NI        0.257446    0.618613    0.727671     0.004307
NI5018   NI        0.290957    0.590091    0.729681     0.004307
NI5019   NI        0.291930    0.625286    0.698095     0.004307
NI5020   NI        0.334959    0.583631    0.684980     0.004307
CU5021   CU        0.328144    0.623449    0.730043     0.006663
NI5022   NI        0.360141    0.589215    0.733055     0.004307
NI5023   NI        0.365905    0.617759    0.682847     0.004307
CU5024   CU        0.402067    0.582824    0.685874     0.006663
CU5025   CU        0.397356    0.612007    0.717093     0.006663
NI5026   NI        0.434976    0.583389    0.715692     0.004307
CU5027   CU        0.432584    0.615157    0.686758     0.006663
NI5028   NI        0.467678    0.583367    0.686076     0.004307
NI5029   NI        0.466212    0.611818    0.723838     0.004307
NI5030   NI        0.506921    0.592007    0.732159     0.004307
NI5031   NI        0.504480    0.624860    0.703931     0.004307
NI5032   NI        0.532623    0.579640    0.681169     0.004307
CU5033   CU        0.539288    0.623703    0.732603     0.006663
CU5034   CU        0.576265    0.589946    0.732704     0.006663
NI5035   NI        0.570966    0.624370    0.703772     0.004307
NI5036   NI        0.601626    0.581728    0.685899     0.004307
NI5037   NI        0.608953    0.621884    0.730625     0.004307
NI5038   NI        0.640852    0.587756    0.730252     0.004307
NI5039   NI        0.641644    0.622923    0.699610     0.004307
CU5040   CU        0.676017    0.586979    0.699912     0.006663
NI5041   NI        0.674020    0.619561    0.728744     0.004307
NI5042   NI        0.710082    0.588588    0.726851     0.004307
CU5043   CU        0.707624    0.617874    0.696455     0.006663
NI5044   NI        0.744796    0.587193    0.697273     0.004307
NI5045   NI        0.743410    0.617427    0.725513     0.004307
NI5046   NI        0.778821    0.585878    0.726526     0.004307
NI5047   NI        0.777704    0.619819    0.694510     0.004307
CU5048   CU        0.809739    0.586292    0.695342     0.006663
NI5049   NI        0.190705    0.649758    0.694467     0.004307
NI5050   NI        0.226729    0.652000    0.727779     0.004307
NI5051   NI        0.225269    0.682381    0.696181     0.004307
CU5052   CU        0.259401    0.652597    0.695890     0.006663
NI5053   NI        0.258481    0.683579    0.726877     0.004307
NI5054   NI        0.293713    0.653454    0.728408     0.004307
CU5055   CU        0.292575    0.686661    0.695225     0.006663
NI5056   NI        0.326010    0.656445    0.697266     0.004307
NI5057   NI        0.327340    0.687564    0.727524     0.004307
NI5058   NI        0.359775    0.656951    0.729961     0.004307
CU5059   CU        0.359354    0.688398    0.696947     0.006663
NI5060   NI        0.401492    0.644103    0.686056     0.004307
NI5061   NI        0.395164    0.687423    0.729704     0.004307
NI5062   NI        0.432751    0.658498    0.730639     0.004307
NI5063   NI        0.432214    0.691566    0.698747     0.004307
NI5064   NI        0.469413    0.645364    0.683864     0.004307
NI5065   NI        0.466814    0.687886    0.731171     0.004307
NI5066   NI        0.503134    0.656750    0.733357     0.004307
NI5067   NI        0.504369    0.685590    0.704486     0.004307
NI5068   NI        0.539950    0.654572    0.705419     0.004307
NI5069   NI        0.537877    0.688457    0.730691     0.004307
NI5070   NI        0.571306    0.656290    0.732453     0.004307
CU5071   CU        0.573343    0.685488    0.699295     0.006663
NI5072   NI        0.608507    0.653568    0.699336     0.004307
NI5073   NI        0.607870    0.684525    0.728126     0.004307
CU5074   CU        0.641242    0.653307    0.728574     0.006663
CU5075   CU        0.642651    0.684687    0.698321     0.006663
NI5076   NI        0.675654    0.652026    0.697492     0.004307
NI5077   NI        0.674606    0.682850    0.728323     0.004307
NI5078   NI        0.708643    0.651694    0.728501     0.004307
NI5079   NI        0.709236    0.681279    0.699422     0.004307
NI5080   NI        0.744214    0.650192    0.694944     0.004307
NI5081   NI        0.258173    0.719389    0.692721     0.004307
NI5082   NI        0.294614    0.716205    0.726975     0.004307
NI5083   NI        0.292651    0.748402    0.692845     0.004307
NI5084   NI        0.326343    0.718705    0.695423     0.004307
NI5085   NI        0.328294    0.750070    0.727769     0.004307
NI5086   NI        0.362419    0.718170    0.728417     0.004307
NI5087   NI        0.362701    0.752398    0.693863     0.004307
NI5088   NI        0.395901    0.718910    0.699826     0.004307
NI5089   NI        0.394443    0.753259    0.727795     0.004307
NI5090   NI        0.433333    0.715943    0.731514     0.004307
NI5091   NI        0.432012    0.750795    0.697298     0.004307
CU5092   CU        0.467207    0.719250    0.700819     0.006663
CU5093   CU        0.468828    0.750711    0.726655     0.006663
NI5094   NI        0.501088    0.719268    0.730554     0.004307
NI5095   NI        0.502850    0.748848    0.697496     0.004307
NI5096   NI        0.540919    0.719785    0.698501     0.004307
NI5097   NI        0.539382    0.749734    0.730819     0.004307
CU5098   CU        0.571895    0.717464    0.729266     0.006663
NI5099   NI        0.573006    0.749511    0.695726     0.004307
CU5100   CU        0.606995    0.714891    0.697168     0.006663
NI5101   NI        0.607382    0.747334    0.723123     0.004307
CU5102   CU        0.641955    0.714301    0.726671     0.006663
CU5103   CU        0.642277    0.745644    0.694887     0.006663
NI5104   NI        0.675226    0.713816    0.694547     0.004307
CU5105   CU        0.324590    0.779526    0.692543     0.006663
NI5106   NI        0.325410    0.776191    0.762152     0.004307
NI5107   NI        0.397622    0.782301    0.694725     0.004307
NI5108   NI        0.432349    0.779859    0.727236     0.004307
NI5109   NI        0.433509    0.811369    0.696913     0.004307
NI5110   NI        0.465922    0.779367    0.697256     0.004307
NI5111   NI        0.504039    0.779565    0.725283     0.004307
NI5112   NI        0.501133    0.810736    0.696481     0.004307
NI5113   NI        0.534954    0.782054    0.697154     0.004307
NI5114   NI        0.573120    0.778510    0.725572     0.004307
NI5115   NI        0.605157    0.780784    0.693940     0.004307
NI5116   NI        0.363833    0.162284    0.754737     0.004307
NI5117   NI        0.431487    0.163137    0.758207     0.004307
NI5118   NI        0.503216    0.162572    0.759013     0.004307
NI5119   NI        0.573488    0.165367    0.758627     0.004307
NI5120   NI        0.297411    0.228610    0.757138     0.004307
CU5121   CU        0.329797    0.196236    0.755921     0.006663
NI5122   NI        0.330149    0.225395    0.786460     0.004307
NI5123   NI        0.361792    0.227722    0.758075     0.004307
NI5124   NI        0.396863    0.195847    0.757278     0.004307
NI5125   NI        0.397525    0.228743    0.790127     0.004307
NI5126   NI        0.428344    0.194873    0.791391     0.004307
NI5127   NI        0.429965    0.224794    0.759161     0.004307
NI5128   NI        0.466620    0.192935    0.762137     0.004307
NI5129   NI        0.465586    0.227247    0.790467     0.004307
NI5130   NI        0.500975    0.195971    0.789859     0.004307
NI5131   NI        0.502520    0.225885    0.762029     0.004307
NI5132   NI        0.535033    0.195462    0.758803     0.004307
NI5133   NI        0.533136    0.227749    0.793379     0.004307
NI5134   NI        0.578013    0.231012    0.762359     0.004307
NI5135   NI        0.608203    0.196096    0.759504     0.004307
NI5136   NI        0.615001    0.228150    0.791583     0.004307
NI5137   NI        0.643270    0.229101    0.760326     0.004307
CU5138   CU        0.222257    0.294074    0.754700     0.006663
NI5139   NI        0.263551    0.261876    0.757495     0.004307
NI5140   NI        0.259287    0.256881    0.819699     0.004307
NI5141   NI        0.293692    0.260774    0.789690     0.004307
NI5142   NI        0.294253    0.293036    0.759161     0.004307
NI5143   NI        0.327680    0.259582    0.758497     0.004307
CU5144   CU        0.326644    0.293591    0.790775     0.006663
NI5145   NI        0.362734    0.259642    0.789745     0.004307
CU5146   CU        0.360815    0.291414    0.762947     0.006663
NI5147   NI        0.396126    0.260958    0.761349     0.004307
NI5148   NI        0.397057    0.290873    0.793121     0.004307
CU5149   CU        0.431502    0.257266    0.791104     0.006663
NI5150   NI        0.432804    0.290491    0.763662     0.004307
NI5151   NI        0.464746    0.258039    0.761601     0.004307
NI5152   NI        0.466381    0.293441    0.790847     0.004307
NI5153   NI        0.499709    0.257855    0.790067     0.004307
NI5154   NI        0.503586    0.293730    0.766237     0.004307
NI5155   NI        0.538310    0.261178    0.762275     0.004307
NI5156   NI        0.536413    0.290331    0.793354     0.004307
CU5157   CU        0.571499    0.255397    0.846920     0.006663
NI5158   NI        0.573208    0.291619    0.762748     0.004307
NI5159   NI        0.610885    0.261305    0.761151     0.004307
NI5160   NI        0.610460    0.290472    0.793557     0.004307
NI5161   NI        0.642476    0.260527    0.790291     0.004307
NI5162   NI        0.642135    0.293521    0.762233     0.004307
NI5163   NI        0.675640    0.262843    0.760956     0.004307
NI5164   NI        0.675236    0.293275    0.791285     0.004307
NI5165   NI        0.711430    0.295924    0.761089     0.004307
NI5166   NI        0.154889    0.357169    0.758432     0.004307
CU5167   CU        0.190747    0.326547    0.757926     0.006663
NI5168   NI        0.223934    0.322931    0.786545     0.004307
NI5169   NI        0.223723    0.358422    0.759391     0.004307
NI5170   NI        0.257544    0.324840    0.758300     0.004307
CU5171   CU        0.256807    0.355253    0.789737     0.006663
NI5172   NI        0.293658    0.325298    0.790415     0.004307
NI5173   NI        0.289458    0.357010    0.761201     0.004307
CU5174   CU        0.325707    0.325217    0.761129     0.006663
CU5175   CU        0.325602    0.356365    0.792271     0.006663
CU5176   CU        0.357440    0.325254    0.792571     0.006663
CU5177   CU        0.360866    0.357489    0.764686     0.006663
NI5178   NI        0.393363    0.327344    0.766947     0.004307
CU5179   CU        0.397746    0.359074    0.791651     0.006663
NI5180   NI        0.431527    0.323830    0.789571     0.004307
NI5181   NI        0.432690    0.359307    0.764020     0.004307
NI5182   NI        0.469831    0.326350    0.763306     0.004307
NI5183   NI        0.465533    0.356759    0.794551     0.004307
NI5184   NI        0.501235    0.324507    0.795798     0.004307
CU5185   CU        0.501501    0.359776    0.767171     0.006663
NI5186   NI        0.538706    0.325196    0.766010     0.004307
CU5187   CU        0.537928    0.358695    0.797162     0.006663
CU5188   CU        0.575402    0.323841    0.795555     0.006663
NI5189   NI        0.573900    0.355798    0.767454     0.004307
NI5190   NI        0.609027    0.320904    0.764546     0.004307
CU5191   CU        0.607260    0.355237    0.794138     0.006663
NI5192   NI        0.643882    0.323509    0.793731     0.004307
NI5193   NI        0.641897    0.353925    0.766896     0.004307
CU5194   CU        0.677795    0.325003    0.762597     0.006663
NI5195   NI        0.676133    0.359229    0.792650     0.004307
NI5196   NI        0.707744    0.327281    0.793580     0.004307
NI5197   NI        0.712096    0.357613    0.761623     0.004307
CU5198   CU        0.744328    0.326531    0.757823     0.006663
NI5199   NI        0.810139    0.390628    0.760695     0.004307
NI5200   NI        0.153320    0.426850    0.759247     0.004307
NI5201   NI        0.189492    0.389232    0.759223     0.004307
NI5202   NI        0.187277    0.419458    0.788771     0.004307
NI5203   NI        0.222720    0.391719    0.788639     0.004307
CU5204   CU        0.220088    0.424336    0.760050     0.006663
CU5205   CU        0.257336    0.391301    0.760081     0.006663
CU5206   CU        0.254769    0.423959    0.791292     0.006663
NI5207   NI        0.290508    0.388880    0.790490     0.004307
NI5208   NI        0.289733    0.423307    0.762231     0.004307
NI5209   NI        0.326917    0.390351    0.762929     0.004307
NI5210   NI        0.325938    0.423239    0.793199     0.004307
NI5211   NI        0.359388    0.392610    0.791725     0.004307
NI5212   NI        0.359514    0.424480    0.762397     0.004307
NI5213   NI        0.395137    0.390586    0.766417     0.004307
NI5214   NI        0.394622    0.425198    0.793188     0.004307
NI5215   NI        0.429592    0.390874    0.793502     0.004307
NI5216   NI        0.432146    0.424721    0.766323     0.004307
CU5217   CU        0.467108    0.390743    0.767987     0.006663
NI5218   NI        0.466787    0.424474    0.798253     0.004307
CU5219   CU        0.503100    0.392680    0.796396     0.006663
NI5220   NI        0.501864    0.423623    0.769128     0.004307
CU5221   CU        0.539238    0.389832    0.767748     0.006663
NI5222   NI        0.535258    0.425057    0.797114     0.004307
NI5223   NI        0.573864    0.389438    0.795003     0.004307
NI5224   NI        0.569084    0.422624    0.769425     0.004307
NI5225   NI        0.605923    0.386346    0.767171     0.004307
CU5226   CU        0.605868    0.423614    0.797131     0.006663
NI5227   NI        0.641460    0.391126    0.790806     0.004307
NI5228   NI        0.641328    0.426227    0.768944     0.004307
NI5229   NI        0.649134    0.389753    0.749763     0.004307
NI5230   NI        0.677409    0.422866    0.792611     0.004307
NI5231   NI        0.712580    0.389378    0.792377     0.004307
NI5232   NI        0.713068    0.423112    0.763984     0.004307
CU5233   CU        0.745464    0.393287    0.758911     0.006663
CU5234   CU        0.744927    0.425114    0.791629     0.006663
NI5235   NI        0.776583    0.423589    0.761613     0.004307
NI5236   NI        0.153693    0.487596    0.756979     0.004307
CU5237   CU        0.187740    0.457442    0.760531     0.006663
NI5238   NI        0.186664    0.491352    0.786082     0.004307
NI5239   NI        0.223605    0.459748    0.788815     0.004307
NI5240   NI        0.221490    0.489573    0.760041     0.004307
NI5241   NI        0.256501    0.458277    0.761140     0.004307
NI5242   NI        0.256363    0.491205    0.790539     0.004307
NI5243   NI        0.290983    0.458065    0.789385     0.004307
NI5244   NI        0.291588    0.491790    0.760413     0.004307
NI5245   NI        0.324608    0.457200    0.763404     0.004307
NI5246   NI        0.327930    0.489050    0.791289     0.004307
NI5247   NI        0.360137    0.456738    0.790737     0.004307
NI5248   NI        0.362284    0.488127    0.761644     0.004307
CU5249   CU        0.396249    0.456920    0.763693     0.006663
CU5250   CU        0.397471    0.487613    0.791801     0.006663
NI5251   NI        0.433176    0.457336    0.793420     0.004307
NI5252   NI        0.433212    0.492856    0.763856     0.004307
NI5253   NI        0.468159    0.457256    0.765365     0.004307
CU5254   CU        0.467805    0.490768    0.794438     0.006663
CU5255   CU        0.498775    0.457993    0.796672     0.006663
NI5256   NI        0.501907    0.488238    0.767897     0.004307
NI5257   NI        0.533307    0.456396    0.769725     0.004307
NI5258   NI        0.533662    0.491346    0.794437     0.004307
NI5259   NI        0.569915    0.456814    0.795663     0.004307
NI5260   NI        0.569107    0.489273    0.767966     0.004307
NI5261   NI        0.605737    0.454796    0.768478     0.004307
CU5262   CU        0.607897    0.490101    0.791338     0.006663
CU5263   CU        0.642850    0.459330    0.792453     0.006663
NI5264   NI        0.644146    0.490395    0.764153     0.004307
CU5265   CU        0.679007    0.457763    0.763233     0.006663
NI5266   NI        0.677073    0.492341    0.791622     0.004307
NI5267   NI        0.711457    0.459067    0.792215     0.004307
NI5268   NI        0.712164    0.487986    0.760520     0.004307
NI5269   NI        0.747634    0.457516    0.760746     0.004307
NI5270   NI        0.742715    0.488761    0.792091     0.004307
NI5271   NI        0.778114    0.490979    0.757431     0.004307
NI5272   NI        0.157507    0.558455    0.755545     0.004307
NI5273   NI        0.189184    0.524735    0.757513     0.004307
NI5274   NI        0.222937    0.522025    0.789451     0.004307
NI5275   NI        0.222090    0.558426    0.760473     0.004307
CU5276   CU        0.254280    0.523023    0.759749     0.006663
NI5277   NI        0.256835    0.555027    0.790294     0.004307
NI5278   NI        0.290869    0.522253    0.790676     0.004307
NI5279   NI        0.292313    0.555977    0.761550     0.004307
NI5280   NI        0.326818    0.522912    0.760351     0.004307
NI5281   NI        0.326069    0.555805    0.792011     0.004307
NI5282   NI        0.361817    0.520310    0.792514     0.004307
CU5283   CU        0.361103    0.555751    0.761147     0.006663
NI5284   NI        0.395920    0.525150    0.763610     0.004307
NI5285   NI        0.399250    0.556585    0.791781     0.004307
NI5286   NI        0.430747    0.521336    0.794333     0.004307
NI5287   NI        0.431903    0.553835    0.763790     0.004307
CU5288   CU        0.466604    0.522988    0.765918     0.006663
NI5289   NI        0.468629    0.557688    0.792728     0.004307
CU5290   CU        0.502502    0.524561    0.793653     0.006663
NI5291   NI        0.503273    0.557570    0.764539     0.004307
NI5292   NI        0.534852    0.524627    0.763952     0.004307
NI5293   NI        0.537132    0.557880    0.792672     0.004307
NI5294   NI        0.573441    0.526001    0.791751     0.004307
NI5295   NI        0.573679    0.558883    0.764572     0.004307
NI5296   NI        0.606580    0.524343    0.764197     0.004307
NI5297   NI        0.610617    0.557151    0.788626     0.004307
NI5298   NI        0.641487    0.525283    0.791156     0.004307
NI5299   NI        0.646212    0.556660    0.760398     0.004307
NI5300   NI        0.678356    0.522764    0.760526     0.004307
CU5301   CU        0.678131    0.557274    0.790624     0.006663
NI5302   NI        0.709662    0.522115    0.791605     0.004307
NI5303   NI        0.712549    0.553942    0.759247     0.004307
NI5304   NI        0.746107    0.522065    0.760903     0.004307
NI5305   NI        0.778305    0.556215    0.758002     0.004307
NI5306   NI        0.191781    0.589874    0.758414     0.004307
NI5307   NI        0.224209    0.591561    0.789547     0.004307
NI5308   NI        0.225017    0.620113    0.758845     0.004307
NI5309   NI        0.259283    0.590463    0.759621     0.004307
CU5310   CU        0.258585    0.620460    0.789989     0.006663
NI5311   NI        0.292644    0.588544    0.789543     0.004307
NI5312   NI        0.294941    0.622260    0.759907     0.004307
CU5313   CU        0.326638    0.588834    0.760300     0.006663
CU5314   CU        0.325815    0.622489    0.790129     0.006663
NI5315   NI        0.362673    0.589845    0.790485     0.004307
CU5316   CU        0.359912    0.621851    0.761136     0.006663
NI5317   NI        0.394333    0.587829    0.761372     0.004307
NI5318   NI        0.398366    0.620062    0.791451     0.004307
NI5319   NI        0.433445    0.588723    0.789548     0.004307
NI5320   NI        0.434871    0.621056    0.761664     0.004307
CU5321   CU        0.470197    0.591049    0.763722     0.006663
CU5322   CU        0.466200    0.620798    0.793436     0.006663
NI5323   NI        0.502559    0.591791    0.790432     0.004307
CU5324   CU        0.499168    0.623276    0.760393     0.006663
NI5325   NI        0.538942    0.589660    0.762220     0.004307
NI5326   NI        0.536527    0.624823    0.788685     0.004307
NI5327   NI        0.572853    0.590847    0.790604     0.004307
NI5328   NI        0.572039    0.621746    0.759395     0.004307
CU5329   CU        0.608222    0.588885    0.761132     0.006663
NI5330   NI        0.606110    0.622009    0.788841     0.004307
CU5331   CU        0.643722    0.590237    0.789832     0.006663
NI5332   NI        0.641309    0.619490    0.759892     0.004307
NI5333   NI        0.676841    0.588037    0.760169     0.004307
NI5334   NI        0.675049    0.620322    0.788426     0.004307
NI5335   NI        0.710834    0.589163    0.786320     0.004307
NI5336   NI        0.705834    0.619633    0.757701     0.004307
NI5337   NI        0.742854    0.588227    0.758443     0.004307
NI5338   NI        0.258897    0.650945    0.756523     0.004307
NI5339   NI        0.289293    0.655420    0.787691     0.004307
NI5340   NI        0.292495    0.686665    0.757455     0.004307
NI5341   NI        0.327379    0.655405    0.760738     0.004307
CU5342   CU        0.324790    0.687902    0.786359     0.006663
CU5343   CU        0.360780    0.653398    0.790278     0.006663
NI5344   NI        0.360080    0.686524    0.760232     0.004307
NI5345   NI        0.394762    0.655252    0.758297     0.004307
NI5346   NI        0.394794    0.683871    0.788481     0.004307
CU5347   CU        0.430854    0.652553    0.789538     0.006663
NI5348   NI        0.431410    0.684693    0.761462     0.004307
CU5349   CU        0.465704    0.655840    0.759786     0.006663
NI5350   NI        0.467341    0.685422    0.789221     0.004307
NI5351   NI        0.502351    0.653338    0.790847     0.004307
NI5352   NI        0.502358    0.689437    0.760869     0.004307
CU5353   CU        0.539142    0.656209    0.761706     0.006663
CU5354   CU        0.536767    0.688980    0.789897     0.006663
NI5355   NI        0.570766    0.654152    0.790957     0.004307
NI5356   NI        0.570924    0.688633    0.761571     0.004307
CU5357   CU        0.604569    0.653613    0.760250     0.006663
NI5358   NI        0.608856    0.684396    0.787049     0.004307
NI5359   NI        0.640275    0.650339    0.787554     0.004307
CU5360   CU        0.640489    0.682745    0.759156     0.006663
CU5361   CU        0.674128    0.650533    0.757520     0.006663
CU5362   CU        0.327896    0.717487    0.756137     0.006663
NI5363   NI        0.360249    0.745771    0.758835     0.004307
NI5364   NI        0.398697    0.718616    0.761042     0.004307
NI5365   NI        0.434485    0.717965    0.789134     0.004307
CU5366   CU        0.430917    0.749724    0.760488     0.006663
NI5367   NI        0.466785    0.719531    0.759972     0.004307
NI5368   NI        0.504720    0.720749    0.790827     0.004307
NI5369   NI        0.503362    0.750856    0.760385     0.004307
CU5370   CU        0.538093    0.719666    0.760004     0.006663
NI5371   NI        0.575788    0.751006    0.756276     0.004307
NI5372   NI        0.605261    0.714148    0.757883     0.004307
NI5373   NI        0.359928    0.292251    0.820066     0.004307
NI5374   NI        0.397545    0.257784    0.819165     0.004307
NI5375   NI        0.431615    0.292248    0.818999     0.004307
NI5376   NI        0.464650    0.260537    0.820308     0.004307
NI5377   NI        0.500680    0.288971    0.820088     0.004307
NI5378   NI        0.536089    0.259507    0.822027     0.004307
NI5379   NI        0.574116    0.289747    0.819263     0.004307
NI5380   NI        0.292686    0.357837    0.822159     0.004307
NI5381   NI        0.325229    0.324195    0.821417     0.004307
NI5382   NI        0.362802    0.357519    0.821376     0.004307
NI5383   NI        0.397679    0.325298    0.818732     0.004307
NI5384   NI        0.396983    0.359958    0.851518     0.004307
NI5385   NI        0.429563    0.325805    0.850384     0.004307
NI5386   NI        0.431142    0.357845    0.822522     0.004307
NI5387   NI        0.465389    0.323057    0.823440     0.004307
NI5388   NI        0.464593    0.356530    0.851562     0.004307
NI5389   NI        0.502191    0.322929    0.845719     0.004307
NI5390   NI        0.502088    0.358164    0.824360     0.004307
CU5391   CU        0.539765    0.324862    0.822182     0.006663
NI5392   NI        0.536757    0.358069    0.849107     0.004307
NI5393   NI        0.572663    0.355505    0.823708     0.004307
NI5394   NI        0.608810    0.325505    0.823677     0.004307
NI5395   NI        0.608741    0.360279    0.851791     0.004307
NI5396   NI        0.257179    0.387807    0.817784     0.004307
CU5397   CU        0.292744    0.425878    0.818482     0.006663
NI5398   NI        0.324421    0.391330    0.818769     0.004307
NI5399   NI        0.326836    0.420258    0.848281     0.004307
NI5400   NI        0.360674    0.390544    0.850469     0.004307
NI5401   NI        0.359847    0.423721    0.819841     0.004307
NI5402   NI        0.396449    0.391431    0.823232     0.004307
NI5403   NI        0.393017    0.422764    0.850540     0.004307
NI5404   NI        0.430765    0.392752    0.852856     0.004307
NI5405   NI        0.429784    0.423061    0.823944     0.004307
NI5406   NI        0.466406    0.388386    0.824512     0.004307
NI5407   NI        0.466447    0.421424    0.851545     0.004307
NI5408   NI        0.500864    0.389024    0.852061     0.004307
NI5409   NI        0.501570    0.424427    0.828016     0.004307
NI5410   NI        0.536728    0.392615    0.826310     0.004307
NI5411   NI        0.536028    0.387894    0.880474     0.004307
NI5412   NI        0.572270    0.385985    0.854350     0.004307
CU5413   CU        0.570404    0.425804    0.821904     0.006663
NI5414   NI        0.605043    0.390459    0.823863     0.004307
NI5415   NI        0.607952    0.426838    0.848675     0.004307
CU5416   CU        0.644562    0.423085    0.821927     0.006663
NI5417   NI        0.638825    0.392717    0.851583     0.004307
NI5418   NI        0.256395    0.459277    0.818885     0.004307
NI5419   NI        0.292543    0.489422    0.819334     0.004307
NI5420   NI        0.325649    0.457740    0.821079     0.004307
NI5421   NI        0.326562    0.490287    0.849714     0.004307
CU5422   CU        0.358770    0.456329    0.849747     0.006663
NI5423   NI        0.361460    0.488181    0.820521     0.004307
NI5424   NI        0.394992    0.458031    0.823076     0.004307
NI5425   NI        0.398319    0.491397    0.849867     0.004307
NI5426   NI        0.428658    0.458074    0.852100     0.004307
CU5427   CU        0.431827    0.491440    0.822470     0.006663
NI5428   NI        0.465716    0.459243    0.824091     0.004307
NI5429   NI        0.465479    0.492586    0.850557     0.004307
NI5430   NI        0.497490    0.459747    0.854460     0.004307
NI5431   NI        0.501346    0.493203    0.824768     0.004307
CU5432   CU        0.536266    0.457444    0.826837     0.006663
NI5433   NI        0.541685    0.493958    0.851518     0.004307
NI5434   NI        0.577303    0.465360    0.851388     0.004307
NI5435   NI        0.574358    0.493951    0.819727     0.004307
NI5436   NI        0.613278    0.459926    0.822101     0.004307
NI5437   NI        0.607332    0.493923    0.849750     0.004307
NI5438   NI        0.643744    0.492411    0.822571     0.004307
NI5439   NI        0.676880    0.456042    0.822916     0.004307
NI5440   NI        0.257183    0.521800    0.820841     0.004307
NI5441   NI        0.289379    0.557003    0.820962     0.004307
NI5442   NI        0.326461    0.521637    0.820831     0.004307
CU5443   CU        0.363443    0.522334    0.851814     0.006663
NI5444   NI        0.362766    0.555501    0.819045     0.004307
CU5445   CU        0.395444    0.524478    0.820062     0.006663
NI5446   NI        0.396761    0.553688    0.848987     0.004307
NI5447   NI        0.432457    0.523895    0.851398     0.004307
CU5448   CU        0.433481    0.556217    0.820271     0.006663
NI5449   NI        0.468040    0.523595    0.821899     0.004307
NI5450   NI        0.466679    0.557931    0.850480     0.004307
NI5451   NI        0.500473    0.523167    0.852139     0.004307
NI5452   NI        0.502927    0.555889    0.823468     0.004307
CU5453   CU        0.534894    0.524289    0.822367     0.006663
NI5454   NI        0.541504    0.559314    0.848370     0.004307
NI5455   NI        0.575275    0.524437    0.849619     0.004307
NI5456   NI        0.574912    0.557760    0.818816     0.004307
NI5457   NI        0.607484    0.523246    0.818447     0.004307
NI5458   NI        0.644203    0.558084    0.817179     0.004307
NI5459   NI        0.676158    0.524606    0.819777     0.004307
NI5460   NI        0.329332    0.592199    0.818601     0.004307
CU5461   CU        0.364653    0.621103    0.819728     0.006663
NI5462   NI        0.399990    0.588933    0.819447     0.004307
NI5463   NI        0.432202    0.590012    0.849829     0.004307
CU5464   CU        0.432013    0.620956    0.820632     0.006663
NI5465   NI        0.468559    0.590054    0.821607     0.004307
NI5466   NI        0.501215    0.587190    0.850896     0.004307
CU5467   CU        0.501636    0.622855    0.821531     0.006663
NI5468   NI        0.536593    0.590792    0.820552     0.004307
NI5469   NI        0.571657    0.623710    0.818423     0.004307
NI5470   NI        0.609154    0.589731    0.816927     0.004307
NI5471   NI        0.397073    0.653763    0.819841     0.004307
CU5472   CU        0.465874    0.653938    0.820705     0.006663
NI5473   NI        0.538760    0.655492    0.821798     0.004307
