data_00001
_audit_creation_method   'DISCUS'

_data_chemical_name_common 'Au.cell: lattice parameter from Pearson85'

_cell_length_a             57.1046
_cell_length_b             57.1046
_cell_length_c             53.0257
_cell_angle_alpha     90.0000
_cell_angle_beta      90.0000
_cell_angle_gamma     90.0000

_symmetry_space_group_name_H-M   'P1              '

loop_
_atom_site_label
_atom_site_symbol
_atom_site_fract_x
_atom_site_fract_y
_atom_site_fract_z
_atom_site_u_iso_or_equiv
PD1   PD        0.359893    0.248342    0.042005     0.005394
PD2   PD        0.430359    0.248334    0.040477     0.005394
PD3   PD        0.501682    0.250728    0.038813     0.005394
PD4   PD        0.293653    0.324075    0.040426     0.005394
PD5   PD        0.326351    0.287400    0.040236     0.005394
PD6   PD        0.359930    0.320316    0.039186     0.005394
PD7   PD        0.395448    0.283576    0.041807     0.005394
PD8   PD        0.429514    0.319736    0.040132     0.005394
PD9   PD        0.466954    0.285605    0.043032     0.005394
PD10   PD        0.503789    0.323428    0.040435     0.005394
PD11   PD        0.540228    0.287615    0.038608     0.005394
PD12   PD        0.575255    0.324834    0.040239     0.005394
PD13   PD        0.256210    0.357709    0.041377     0.005394
PD14   PD        0.289353    0.396109    0.038705     0.005394
PD15   PD        0.325275    0.358514    0.042354     0.005394
PD16   PD        0.359408    0.394753    0.041657     0.005394
PD17   PD        0.396067    0.358328    0.038682     0.005394
PD18   PD        0.396428    0.394357    0.005255     0.005394
PD19   PD        0.430301    0.359589    0.003383     0.005394
PD20   PD        0.432156    0.395459    0.041707     0.005394
PD21   PD        0.465015    0.359980    0.040562     0.005394
PD22   PD        0.466030    0.396471    0.003034     0.005394
PD23   PD        0.502853    0.392585    0.040418     0.005394
PD24   PD        0.541844    0.359163    0.043027     0.005394
PD25   PD        0.575897    0.395944    0.044157     0.005394
PD26   PD        0.609098    0.362299    0.040249     0.005394
PD27   PD        0.254859    0.430864    0.043017     0.005394
PD28   PD        0.286644    0.464892    0.040117     0.005394
PD29   PD        0.322891    0.431179    0.040764     0.005394
PD30   PD        0.362178    0.431293    0.005750     0.005394
PD31   PD        0.359490    0.467551    0.040460     0.005394
PD32   PD        0.397224    0.428451    0.042673     0.005394
PD33   PD        0.399509    0.465670    0.005289     0.005394
AU34   AU        0.433218    0.430464    0.000769     0.007504
PD35   PD        0.432418    0.463636    0.042499     0.005394
PD36   PD        0.466731    0.429832    0.041071     0.005394
PD37   PD        0.466553    0.466447    0.003458     0.005394
PD38   PD        0.501360    0.430382    0.005814     0.005394
PD39   PD        0.499224    0.467510    0.040857     0.005394
AU40   AU        0.538570    0.431405    0.039818     0.007504
PD41   PD        0.575678    0.467047    0.040964     0.005394
PD42   PD        0.609887    0.429798    0.041138     0.005394
AU43   AU        0.249448    0.501043    0.038043     0.007504
PD44   PD        0.288287    0.536521    0.042772     0.005394
AU45   AU        0.322876    0.503558    0.037590     0.007504
AU46   AU        0.357817    0.539664    0.040505     0.007504
PD47   PD        0.396676    0.503552    0.040009     0.005394
PD48   PD        0.433064    0.499635    0.005512     0.005394
AU49   AU        0.430144    0.536766    0.039845     0.007504
PD50   PD        0.466398    0.503340    0.042669     0.005394
PD51   PD        0.499618    0.539979    0.045263     0.005394
AU52   AU        0.538085    0.500932    0.036933     0.007504
PD53   PD        0.573616    0.538383    0.041596     0.005394
PD54   PD        0.611493    0.503660    0.042265     0.005394
PD55   PD        0.323594    0.575302    0.045491     0.005394
PD56   PD        0.359767    0.609018    0.044580     0.005394
PD57   PD        0.393453    0.574648    0.042825     0.005394
PD58   PD        0.427647    0.609251    0.041005     0.005394
PD59   PD        0.466280    0.576312    0.043731     0.005394
PD60   PD        0.501507    0.609419    0.045697     0.005394
PD61   PD        0.535950    0.573161    0.042405     0.005394
PD62   PD        0.291465    0.183953    0.117305     0.005394
AU63   AU        0.358754    0.179770    0.114182     0.007504
PD64   PD        0.398948    0.143187    0.115120     0.005394
PD65   PD        0.396997    0.181978    0.080652     0.005394
PD66   PD        0.431930    0.179095    0.117653     0.005394
AU67   AU        0.466500    0.144501    0.114191     0.007504
PD68   PD        0.467585    0.182414    0.079460     0.005394
PD69   PD        0.501410    0.179673    0.117214     0.005394
AU70   AU        0.576548    0.182549    0.113162     0.007504
PD71   PD        0.217956    0.251607    0.115007     0.005394
PD72   PD        0.256290    0.217868    0.111586     0.005394
PD73   PD        0.251928    0.253175    0.077784     0.005394
PD74   PD        0.290154    0.252318    0.113756     0.005394
PD75   PD        0.326001    0.216992    0.116657     0.005394
PD76   PD        0.325284    0.250418    0.077544     0.005394
PD77   PD        0.360672    0.215514    0.080921     0.005394
PD78   PD        0.360782    0.252742    0.116672     0.005394
PD79   PD        0.397471    0.217129    0.117086     0.005394
PD80   PD        0.396299    0.252223    0.081929     0.005394
PD81   PD        0.431641    0.214320    0.080178     0.005394
PD82   PD        0.433277    0.249121    0.116356     0.005394
PD83   PD        0.466712    0.216695    0.117409     0.005394
PD84   PD        0.467928    0.247627    0.075087     0.005394
PD85   PD        0.505870    0.215391    0.077684     0.005394
PD86   PD        0.503698    0.249318    0.113973     0.005394
PD87   PD        0.538753    0.215790    0.115243     0.005394
PD88   PD        0.538473    0.252658    0.076419     0.005394
AU89   AU        0.576017    0.248925    0.111842     0.007504
AU90   AU        0.615806    0.215366    0.112115     0.007504
PD91   PD        0.614500    0.256006    0.076526     0.005394
PD92   PD        0.648736    0.253023    0.115069     0.005394
PD93   PD        0.184514    0.287828    0.114819     0.005394
PD94   PD        0.217709    0.324035    0.112854     0.005394
PD95   PD        0.254147    0.287990    0.113849     0.005394
AU96   AU        0.254680    0.323104    0.076785     0.007504
PD97   PD        0.289881    0.286573    0.075616     0.005394
AU98   AU        0.290839    0.324411    0.114743     0.007504
PD99   PD        0.325238    0.286784    0.113207     0.005394
PD100   PD        0.326447    0.321914    0.078766     0.005394
PD101   PD        0.361112    0.286809    0.078391     0.005394
PD102   PD        0.360454    0.324777    0.114025     0.005394
PD103   PD        0.396500    0.287218    0.116475     0.005394
AU104   AU        0.394861    0.320634    0.077073     0.007504
PD105   PD        0.434344    0.283148    0.079350     0.005394
AU106   AU        0.431626    0.322909    0.116117     0.007504
AU107   AU        0.468829    0.287074    0.113698     0.007504
AU108   AU        0.465157    0.322142    0.076851     0.007504
PD109   PD        0.504701    0.286728    0.078651     0.005394
AU110   AU        0.504912    0.322238    0.115598     0.007504
AU111   AU        0.539205    0.288036    0.115726     0.007504
PD112   PD        0.540951    0.321617    0.075023     0.005394
PD113   PD        0.575064    0.286009    0.073981     0.005394
PD114   PD        0.575263    0.322452    0.115241     0.005394
PD115   PD        0.609209    0.288512    0.114499     0.005394
PD116   PD        0.609541    0.322684    0.078264     0.005394
PD117   PD        0.644742    0.321953    0.115865     0.005394
PD118   PD        0.684432    0.288446    0.114747     0.005394
PD119   PD        0.145332    0.396453    0.112381     0.005394
AU120   AU        0.183456    0.358479    0.112691     0.007504
PD121   PD        0.183248    0.396119    0.077645     0.005394
PD122   PD        0.218286    0.360373    0.076150     0.005394
PD123   PD        0.218594    0.397733    0.114591     0.005394
PD124   PD        0.253261    0.359004    0.115259     0.005394
AU125   AU        0.253608    0.394718    0.078193     0.007504
PD126   PD        0.289918    0.360907    0.076701     0.005394
PD127   PD        0.286727    0.392978    0.117656     0.005394
AU128   AU        0.325123    0.360913    0.115028     0.007504
PD129   PD        0.324007    0.394944    0.076509     0.005394
PD130   PD        0.360066    0.360390    0.075538     0.005394
AU131   AU        0.359428    0.398197    0.113716     0.007504
AU132   AU        0.397140    0.359027    0.113420     0.007504
PD133   PD        0.395165    0.392010    0.077053     0.005394
AU134   AU        0.431518    0.357704    0.078588     0.007504
AU135   AU        0.432015    0.395209    0.115520     0.007504
PD136   PD        0.469271    0.357915    0.115310     0.005394
AU137   AU        0.467699    0.394544    0.080500     0.007504
PD138   PD        0.502656    0.359542    0.078072     0.005394
PD139   PD        0.504355    0.394885    0.115317     0.005394
AU140   AU        0.539534    0.357247    0.113084     0.007504
PD141   PD        0.536316    0.396808    0.078613     0.005394
AU142   AU        0.574385    0.358642    0.078648     0.007504
AU143   AU        0.574788    0.394908    0.114737     0.007504
PD144   PD        0.610316    0.358968    0.117693     0.005394
PD145   PD        0.610934    0.395926    0.078160     0.005394
PD146   PD        0.644803    0.357784    0.078024     0.005394
AU147   AU        0.648256    0.395138    0.114591     0.007504
PD148   PD        0.680810    0.355712    0.116336     0.005394
PD149   PD        0.681849    0.391783    0.078115     0.005394
PD150   PD        0.718024    0.391231    0.115910     0.005394
PD151   PD        0.148933    0.468082    0.116410     0.005394
PD152   PD        0.184089    0.430789    0.114455     0.005394
PD153   PD        0.183322    0.465213    0.077499     0.005394
PD154   PD        0.218718    0.431193    0.077498     0.005394
PD155   PD        0.218169    0.465643    0.116835     0.005394
PD156   PD        0.253532    0.431196    0.115716     0.005394
PD157   PD        0.254353    0.466315    0.080784     0.005394
PD158   PD        0.288311    0.429001    0.080822     0.005394
PD159   PD        0.289833    0.466801    0.116187     0.005394
PD160   PD        0.323649    0.432705    0.114452     0.005394
AU161   AU        0.322772    0.467074    0.077223     0.007504
AU162   AU        0.358536    0.432928    0.077192     0.007504
AU163   AU        0.359980    0.468356    0.112815     0.007504
AU164   AU        0.397207    0.430245    0.116819     0.007504
AU165   AU        0.396438    0.466547    0.079376     0.007504
PD166   PD        0.430088    0.429152    0.078642     0.005394
PD167   PD        0.431589    0.467758    0.115060     0.005394
PD168   PD        0.466249    0.430743    0.114319     0.005394
AU169   AU        0.466258    0.466674    0.079022     0.007504
PD170   PD        0.501546    0.430165    0.079060     0.005394
AU171   AU        0.503938    0.465469    0.114989     0.007504
PD172   PD        0.540464    0.431495    0.113385     0.005394
AU173   AU        0.537707    0.466328    0.077012     0.007504
PD174   PD        0.574748    0.431249    0.079060     0.005394
PD175   PD        0.572149    0.464916    0.116438     0.005394
PD176   PD        0.609068    0.429836    0.116966     0.005394
PD177   PD        0.608504    0.466777    0.080723     0.005394
PD178   PD        0.644730    0.432696    0.081441     0.005394
AU179   AU        0.646130    0.466391    0.116000     0.007504
AU180   AU        0.685364    0.431199    0.115978     0.007504
PD181   PD        0.682813    0.466421    0.080932     0.005394
PD182   PD        0.719369    0.466267    0.116130     0.005394
PD183   PD        0.181865    0.501833    0.113767     0.005394
PD184   PD        0.217980    0.500127    0.079436     0.005394
PD185   PD        0.218400    0.538607    0.117936     0.005394
PD186   PD        0.253299    0.502009    0.116647     0.005394
PD187   PD        0.250772    0.535958    0.078817     0.005394
PD188   PD        0.284975    0.501146    0.075554     0.005394
AU189   AU        0.286793    0.536691    0.115366     0.007504
AU190   AU        0.320650    0.500594    0.117573     0.007504
PD191   PD        0.322941    0.537502    0.079489     0.005394
PD192   PD        0.359808    0.504366    0.076684     0.005394
PD193   PD        0.362087    0.539805    0.115747     0.005394
AU194   AU        0.396146    0.503712    0.113927     0.007504
PD195   PD        0.395138    0.539338    0.077856     0.005394
PD196   PD        0.429674    0.500733    0.075430     0.005394
PD197   PD        0.430943    0.537789    0.114800     0.005394
PD198   PD        0.466188    0.504054    0.115209     0.005394
PD199   PD        0.466968    0.539703    0.081453     0.005394
PD200   PD        0.502702    0.504018    0.079152     0.005394
PD201   PD        0.500423    0.539156    0.118116     0.005394
AU202   AU        0.535217    0.505034    0.117622     0.007504
PD203   PD        0.535470    0.539015    0.080655     0.005394
AU204   AU        0.573117    0.504460    0.078499     0.007504
PD205   PD        0.573349    0.539281    0.118121     0.005394
PD206   PD        0.609566    0.501938    0.115736     0.005394
PD207   PD        0.609217    0.538227    0.081268     0.005394
PD208   PD        0.644895    0.500806    0.078255     0.005394
PD209   PD        0.645885    0.535441    0.117917     0.005394
AU210   AU        0.683161    0.502241    0.117892     0.007504
PD211   PD        0.180300    0.575819    0.116009     0.005394
PD212   PD        0.218156    0.611687    0.118748     0.005394
PD213   PD        0.250813    0.576240    0.115708     0.005394
PD214   PD        0.253749    0.609076    0.079165     0.005394
PD215   PD        0.286601    0.572657    0.079415     0.005394
AU216   AU        0.288530    0.609732    0.118040     0.007504
PD217   PD        0.324300    0.574081    0.115683     0.005394
PD218   PD        0.325094    0.611716    0.080155     0.005394
PD219   PD        0.360003    0.575007    0.081884     0.005394
PD220   PD        0.358663    0.610174    0.116830     0.005394
PD221   PD        0.396968    0.573961    0.117188     0.005394
PD222   PD        0.395832    0.612586    0.083438     0.005394
PD223   PD        0.429253    0.573172    0.077678     0.005394
PD224   PD        0.429474    0.611975    0.117579     0.005394
PD225   PD        0.462769    0.575257    0.116259     0.005394
AU226   AU        0.462317    0.611909    0.078996     0.007504
PD227   PD        0.500735    0.575936    0.083062     0.005394
PD228   PD        0.501188    0.613418    0.117395     0.005394
PD229   PD        0.539590    0.575021    0.114882     0.005394
PD230   PD        0.539876    0.610327    0.076781     0.005394
AU231   AU        0.575105    0.573245    0.080279     0.007504
PD232   PD        0.575857    0.611506    0.115522     0.005394
PD233   PD        0.610850    0.573089    0.118759     0.005394
PD234   PD        0.612228    0.608335    0.083103     0.005394
PD235   PD        0.648101    0.608949    0.119564     0.005394
PD236   PD        0.681214    0.572893    0.117088     0.005394
PD237   PD        0.252475    0.645134    0.117935     0.005394
PD238   PD        0.288818    0.683776    0.116934     0.005394
PD239   PD        0.323490    0.649450    0.116999     0.005394
PD240   PD        0.360005    0.647370    0.081366     0.005394
AU241   AU        0.359212    0.685280    0.117476     0.007504
PD242   PD        0.394970    0.647418    0.118708     0.005394
PD243   PD        0.393158    0.684418    0.080634     0.005394
PD244   PD        0.429804    0.647629    0.077132     0.005394
PD245   PD        0.428058    0.683042    0.119296     0.005394
PD246   PD        0.464612    0.650572    0.116198     0.005394
PD247   PD        0.465527    0.681285    0.078521     0.005394
PD248   PD        0.501748    0.645988    0.077317     0.005394
PD249   PD        0.503160    0.680928    0.116414     0.005394
PD250   PD        0.538877    0.646914    0.114870     0.005394
PD251   PD        0.577738    0.680628    0.117755     0.005394
PD252   PD        0.614035    0.644596    0.118970     0.005394
PD253   PD        0.396449    0.719576    0.120520     0.005394
PD254   PD        0.466510    0.714345    0.117754     0.005394
PD255   PD        0.291583    0.111016    0.195482     0.005394
PD256   PD        0.359395    0.111558    0.190649     0.005394
PD257   PD        0.394349    0.075683    0.192386     0.005394
PD258   PD        0.395051    0.111322    0.154161     0.005394
PD259   PD        0.432265    0.110533    0.189538     0.005394
PD260   PD        0.468289    0.075079    0.188397     0.005394
PD261   PD        0.465588    0.110772    0.151164     0.005394
PD262   PD        0.504972    0.107618    0.190177     0.005394
PD263   PD        0.576224    0.110355    0.187870     0.005394
PD264   PD        0.215409    0.181598    0.190772     0.005394
PD265   PD        0.255429    0.144267    0.191126     0.005394
AU266   AU        0.255206    0.180098    0.154557     0.007504
PD267   PD        0.292000    0.144334    0.152953     0.005394
PD268   PD        0.290493    0.180465    0.190978     0.005394
PD269   PD        0.325002    0.143805    0.192745     0.005394
PD270   PD        0.325376    0.179676    0.154176     0.005394
PD271   PD        0.361301    0.146679    0.155227     0.005394
PD272   PD        0.360695    0.179504    0.192588     0.005394
PD273   PD        0.395170    0.144478    0.192520     0.005394
PD274   PD        0.395062    0.179619    0.152827     0.005394
PD275   PD        0.431192    0.145535    0.154322     0.005394
AU276   AU        0.430956    0.178296    0.190521     0.007504
PD277   PD        0.469429    0.143208    0.189198     0.005394
PD278   PD        0.469288    0.179044    0.155015     0.005394
PD279   PD        0.501622    0.141822    0.152981     0.005394
PD280   PD        0.505015    0.179939    0.190511     0.005394
PD281   PD        0.538207    0.145206    0.189978     0.005394
AU282   AU        0.537796    0.178745    0.152246     0.007504
PD283   PD        0.576419    0.147776    0.153274     0.005394
PD284   PD        0.573878    0.180411    0.190418     0.005394
AU285   AU        0.612389    0.143877    0.190269     0.007504
PD286   PD        0.614831    0.178533    0.153052     0.005394
PD287   PD        0.646250    0.179937    0.190243     0.005394
PD288   PD        0.147712    0.253075    0.190428     0.005394
AU289   AU        0.181161    0.215061    0.187873     0.007504
PD290   PD        0.183501    0.253039    0.153998     0.005394
PD291   PD        0.218960    0.215456    0.153924     0.005394
AU292   AU        0.218666    0.254566    0.189980     0.007504
PD293   PD        0.255504    0.218636    0.192066     0.005394
PD294   PD        0.252596    0.250754    0.150961     0.005394
PD295   PD        0.288413    0.218383    0.152179     0.005394
PD296   PD        0.289443    0.253470    0.187131     0.005394
PD297   PD        0.322467    0.218034    0.186673     0.005394
PD298   PD        0.323291    0.252379    0.150712     0.005394
PD299   PD        0.360279    0.217480    0.152086     0.005394
AU300   AU        0.360711    0.249740    0.189110     0.007504
AU301   AU        0.396246    0.215471    0.190242     0.007504
PD302   PD        0.397635    0.249329    0.155506     0.005394
PD303   PD        0.433522    0.212925    0.151148     0.005394
AU304   AU        0.432482    0.249246    0.191058     0.007504
PD305   PD        0.468835    0.214554    0.190390     0.005394
PD306   PD        0.467740    0.249679    0.153777     0.005394
AU307   AU        0.503916    0.215202    0.150904     0.007504
AU308   AU        0.504572    0.248377    0.191420     0.007504
PD309   PD        0.540226    0.213648    0.188391     0.005394
PD310   PD        0.538958    0.249848    0.152079     0.005394
AU311   AU        0.576937    0.217846    0.152432     0.007504
PD312   PD        0.575275    0.252674    0.191525     0.005394
AU313   AU        0.611287    0.215244    0.188548     0.007504
PD314   PD        0.614444    0.253166    0.149507     0.005394
PD315   PD        0.650565    0.214066    0.154083     0.005394
PD316   PD        0.648499    0.250647    0.191042     0.005394
PD317   PD        0.683883    0.216244    0.191062     0.005394
PD318   PD        0.683854    0.251539    0.153574     0.005394
PD319   PD        0.718474    0.251589    0.192107     0.005394
PD320   PD        0.110470    0.286732    0.189497     0.005394
AU321   AU        0.144080    0.284309    0.146347     0.007504
AU322   AU        0.144884    0.323266    0.185094     0.007504
PD323   PD        0.182247    0.287001    0.189221     0.005394
PD324   PD        0.182622    0.321394    0.150844     0.005394
PD325   PD        0.219316    0.286727    0.150639     0.005394
PD326   PD        0.216619    0.324438    0.189535     0.005394
AU327   AU        0.254259    0.289323    0.187484     0.007504
AU328   AU        0.251896    0.323862    0.151166     0.007504
PD329   PD        0.289959    0.287016    0.149701     0.005394
AU330   AU        0.289265    0.324344    0.189245     0.007504
AU331   AU        0.324253    0.286555    0.189847     0.007504
AU332   AU        0.326108    0.323493    0.154362     0.007504
PD333   PD        0.361499    0.288719    0.152017     0.005394
AU334   AU        0.360550    0.321296    0.191754     0.007504
AU335   AU        0.396813    0.286706    0.191028     0.007504
PD336   PD        0.397306    0.322754    0.153957     0.005394
AU337   AU        0.431470    0.285133    0.152620     0.007504
AU338   AU        0.432003    0.321781    0.189752     0.007504
AU339   AU        0.469353    0.284512    0.192492     0.007504
AU340   AU        0.467852    0.321878    0.151836     0.007504
AU341   AU        0.501597    0.283689    0.153578     0.007504
AU342   AU        0.504626    0.320138    0.190828     0.007504
PD343   PD        0.537339    0.286342    0.187975     0.005394
AU344   AU        0.539678    0.324456    0.153172     0.007504
PD345   PD        0.575477    0.285310    0.154505     0.005394
AU346   AU        0.576820    0.321026    0.189378     0.007504
AU347   AU        0.611792    0.284836    0.189427     0.007504
AU348   AU        0.611470    0.321505    0.153608     0.007504
PD349   PD        0.650196    0.286507    0.152362     0.005394
AU350   AU        0.645453    0.321342    0.192411     0.007504
PD351   PD        0.683785    0.288040    0.195497     0.005394
PD352   PD        0.683824    0.322984    0.156287     0.005394
PD353   PD        0.717656    0.287049    0.155382     0.005394
PD354   PD        0.718107    0.323165    0.194653     0.005394
PD355   PD        0.751272    0.285849    0.193234     0.005394
PD356   PD        0.075042    0.399316    0.188237     0.005394
PD357   PD        0.110418    0.361289    0.190544     0.005394
AU358   AU        0.112161    0.396870    0.151552     0.007504
PD359   PD        0.147474    0.363764    0.150841     0.005394
AU360   AU        0.147549    0.395262    0.190482     0.007504
AU361   AU        0.181364    0.357605    0.188204     0.007504
PD362   PD        0.180951    0.395904    0.148656     0.005394
AU363   AU        0.218422    0.360156    0.152060     0.007504
PD364   PD        0.213786    0.393685    0.190709     0.005394
PD365   PD        0.252598    0.356800    0.190957     0.005394
AU366   AU        0.252679    0.395222    0.152967     0.007504
AU367   AU        0.290275    0.358810    0.152446     0.007504
AU368   AU        0.287774    0.394430    0.189837     0.007504
AU369   AU        0.324433    0.360335    0.189771     0.007504
AU370   AU        0.323234    0.398465    0.152935     0.007504
AU371   AU        0.360330    0.359596    0.151808     0.007504
AU372   AU        0.360546    0.396057    0.190134     0.007504
AU373   AU        0.395245    0.359193    0.189980     0.007504
AU374   AU        0.395407    0.394014    0.152614     0.007504
AU375   AU        0.431287    0.357740    0.151221     0.007504
AU376   AU        0.429910    0.392921    0.187347     0.007504
PD377   PD        0.469465    0.359078    0.190854     0.005394
AU378   AU        0.468912    0.394495    0.152243     0.007504
AU379   AU        0.505128    0.360032    0.151484     0.007504
AU380   AU        0.505307    0.395644    0.190811     0.007504
AU381   AU        0.539694    0.358586    0.191008     0.007504
AU382   AU        0.540484    0.393715    0.150359     0.007504
PD383   PD        0.575020    0.357693    0.153478     0.005394
AU384   AU        0.573146    0.393340    0.190226     0.007504
AU385   AU        0.610463    0.360245    0.190984     0.007504
AU386   AU        0.608714    0.394367    0.152238     0.007504
PD387   PD        0.647523    0.357564    0.152610     0.005394
AU388   AU        0.646671    0.394577    0.190115     0.007504
AU389   AU        0.683462    0.358538    0.191637     0.007504
AU390   AU        0.684306    0.395779    0.155637     0.007504
PD391   PD        0.717580    0.356023    0.153900     0.005394
PD392   PD        0.716674    0.395970    0.195290     0.005394
PD393   PD        0.751172    0.358023    0.192157     0.005394
PD394   PD        0.747641    0.393824    0.157116     0.005394
PD395   PD        0.786445    0.393752    0.191489     0.005394
PD396   PD        0.076991    0.467068    0.186931     0.005394
PD397   PD        0.112331    0.432450    0.188747     0.005394
AU398   AU        0.111274    0.469747    0.148962     0.007504
PD399   PD        0.147392    0.432236    0.151719     0.005394
AU400   AU        0.147018    0.466178    0.189424     0.007504
PD401   PD        0.182995    0.431475    0.191787     0.005394
PD402   PD        0.182780    0.466064    0.151467     0.005394
PD403   PD        0.215784    0.429417    0.152709     0.005394
PD404   PD        0.216075    0.467122    0.187890     0.005394
AU405   AU        0.250203    0.427724    0.190746     0.007504
AU406   AU        0.249237    0.465950    0.154258     0.007504
AU407   AU        0.290024    0.431524    0.152570     0.007504
AU408   AU        0.287886    0.465138    0.193359     0.007504
PD409   PD        0.324435    0.431487    0.191356     0.005394
PD410   PD        0.324896    0.468855    0.153143     0.005394
AU411   AU        0.359656    0.432703    0.151694     0.007504
AU412   AU        0.358082    0.465256    0.190740     0.007504
AU413   AU        0.394179    0.429167    0.190273     0.007504
AU414   AU        0.391702    0.468282    0.150382     0.007504
AU415   AU        0.430835    0.431042    0.154112     0.007504
AU416   AU        0.428787    0.466893    0.189766     0.007504
AU417   AU        0.469546    0.430007    0.189075     0.007504
AU418   AU        0.467550    0.468237    0.151086     0.007504
AU419   AU        0.502786    0.429918    0.151211     0.007504
AU420   AU        0.502146    0.469637    0.192629     0.007504
AU421   AU        0.539611    0.432705    0.190443     0.007504
AU422   AU        0.537262    0.468871    0.154761     0.007504
PD423   PD        0.574644    0.432508    0.153341     0.005394
AU424   AU        0.574336    0.469004    0.192153     0.007504
AU425   AU        0.611592    0.428521    0.189332     0.007504
PD426   PD        0.608738    0.468049    0.151055     0.005394
AU427   AU        0.646408    0.432274    0.150549     0.007504
AU428   AU        0.647709    0.467052    0.192600     0.007504
PD429   PD        0.683784    0.430314    0.193266     0.005394
PD430   PD        0.683380    0.466070    0.154759     0.005394
PD431   PD        0.718503    0.434306    0.155244     0.005394
AU432   AU        0.719323    0.466266    0.193106     0.007504
PD433   PD        0.753468    0.430289    0.190830     0.005394
AU434   AU        0.755213    0.468670    0.156017     0.007504
PD435   PD        0.786559    0.467962    0.194912     0.005394
PD436   PD        0.112164    0.501940    0.191542     0.005394
PD437   PD        0.148490    0.503298    0.153730     0.005394
PD438   PD        0.147055    0.537541    0.190015     0.005394
AU439   AU        0.181006    0.504304    0.191679     0.007504
PD440   PD        0.180188    0.539924    0.151885     0.005394
PD441   PD        0.218368    0.502850    0.154602     0.005394
PD442   PD        0.215635    0.539003    0.191847     0.005394
PD443   PD        0.252821    0.502671    0.189763     0.005394
PD444   PD        0.252810    0.537034    0.156586     0.005394
PD445   PD        0.287678    0.499929    0.154610     0.005394
AU446   AU        0.289601    0.539880    0.191892     0.007504
AU447   AU        0.322611    0.502799    0.191043     0.007504
PD448   PD        0.324454    0.537955    0.153824     0.005394
PD449   PD        0.359713    0.504117    0.152045     0.005394
AU450   AU        0.359450    0.537940    0.191944     0.007504
AU451   AU        0.394243    0.502854    0.191304     0.007504
AU452   AU        0.396766    0.540026    0.154931     0.007504
AU453   AU        0.430016    0.503589    0.151988     0.007504
AU454   AU        0.433247    0.541233    0.193195     0.007504
AU455   AU        0.465799    0.502680    0.190865     0.007504
AU456   AU        0.465649    0.539222    0.154117     0.007504
AU457   AU        0.501594    0.504349    0.155939     0.007504
AU458   AU        0.500985    0.540775    0.193506     0.007504
AU459   AU        0.538248    0.503773    0.193029     0.007504
AU460   AU        0.539952    0.541398    0.155008     0.007504
AU461   AU        0.575390    0.504146    0.152808     0.007504
AU462   AU        0.574950    0.538630    0.192280     0.007504
PD463   PD        0.610919    0.502390    0.190772     0.005394
PD464   PD        0.610542    0.537340    0.153190     0.005394
AU465   AU        0.646930    0.500683    0.153492     0.007504
PD466   PD        0.648209    0.534686    0.189590     0.005394
PD467   PD        0.683126    0.500577    0.193896     0.005394
PD468   PD        0.682127    0.536352    0.155815     0.005394
PD469   PD        0.720846    0.505056    0.154342     0.005394
PD470   PD        0.715829    0.536995    0.192954     0.005394
PD471   PD        0.752069    0.504414    0.194453     0.005394
PD472   PD        0.110859    0.574932    0.190858     0.005394
PD473   PD        0.144062    0.574116    0.152756     0.005394
PD474   PD        0.143857    0.611044    0.193765     0.005394
PD475   PD        0.178837    0.575045    0.190144     0.005394
PD476   PD        0.178892    0.610314    0.152890     0.005394
AU477   AU        0.215397    0.574145    0.154430     0.007504
PD478   PD        0.218803    0.610696    0.191701     0.005394
AU479   AU        0.252175    0.574108    0.190205     0.007504
PD480   PD        0.254213    0.611857    0.155228     0.005394
AU481   AU        0.287410    0.573594    0.153609     0.007504
AU482   AU        0.288573    0.612078    0.192303     0.007504
AU483   AU        0.324468    0.575077    0.193113     0.007504
AU484   AU        0.324371    0.609551    0.153379     0.007504
PD485   PD        0.358833    0.571934    0.152724     0.005394
PD486   PD        0.358898    0.615923    0.191165     0.005394
AU487   AU        0.394591    0.576895    0.189881     0.007504
PD488   PD        0.394277    0.611051    0.153463     0.005394
PD489   PD        0.429574    0.575128    0.153900     0.005394
AU490   AU        0.429709    0.610801    0.192372     0.007504
AU491   AU        0.467012    0.578658    0.192412     0.007504
AU492   AU        0.463429    0.614197    0.153046     0.007504
PD493   PD        0.501988    0.575962    0.152918     0.005394
AU494   AU        0.503859    0.611496    0.189136     0.007504
AU495   AU        0.538428    0.574587    0.191471     0.007504
PD496   PD        0.539758    0.611889    0.150587     0.005394
PD497   PD        0.572393    0.574945    0.154138     0.005394
AU498   AU        0.576811    0.608625    0.191937     0.007504
AU499   AU        0.610465    0.573250    0.190310     0.007504
AU500   AU        0.610402    0.610317    0.152596     0.007504
AU501   AU        0.646422    0.572716    0.154258     0.007504
PD502   PD        0.647204    0.608409    0.192046     0.005394
AU503   AU        0.681107    0.572662    0.193488     0.007504
PD504   PD        0.680122    0.608179    0.156668     0.005394
PD505   PD        0.717132    0.571437    0.154001     0.005394
PD506   PD        0.716085    0.608584    0.192970     0.005394
AU507   AU        0.750596    0.572627    0.192307     0.007504
PD508   PD        0.180949    0.646461    0.191885     0.005394
PD509   PD        0.216798    0.646780    0.155736     0.005394
PD510   PD        0.217425    0.682661    0.192968     0.005394
PD511   PD        0.254771    0.648616    0.189921     0.005394
AU512   AU        0.254386    0.682470    0.154080     0.007504
PD513   PD        0.287951    0.648280    0.152392     0.005394
PD514   PD        0.287076    0.682916    0.194366     0.005394
AU515   AU        0.325365    0.650689    0.192140     0.007504
PD516   PD        0.322028    0.685543    0.156289     0.005394
PD517   PD        0.359020    0.648176    0.152651     0.005394
PD518   PD        0.359902    0.683886    0.191490     0.005394
AU519   AU        0.393590    0.648266    0.191239     0.007504
PD520   PD        0.395898    0.684183    0.156413     0.005394
PD521   PD        0.429927    0.647758    0.154590     0.005394
AU522   AU        0.430219    0.685489    0.194688     0.007504
AU523   AU        0.465600    0.650419    0.193383     0.007504
PD524   PD        0.466924    0.682184    0.155163     0.005394
PD525   PD        0.501322    0.646967    0.155154     0.005394
PD526   PD        0.502434    0.683034    0.193650     0.005394
PD527   PD        0.539192    0.648481    0.191270     0.005394
PD528   PD        0.536460    0.680876    0.154058     0.005394
PD529   PD        0.575859    0.645204    0.151740     0.005394
PD530   PD        0.576110    0.678819    0.192424     0.005394
PD531   PD        0.610478    0.644223    0.194660     0.005394
PD532   PD        0.609020    0.681651    0.155980     0.005394
PD533   PD        0.645781    0.645086    0.157893     0.005394
AU534   AU        0.645897    0.682490    0.191400     0.007504
PD535   PD        0.681338    0.643882    0.195181     0.005394
PD536   PD        0.251748    0.717577    0.191349     0.005394
PD537   PD        0.288687    0.719532    0.157186     0.005394
PD538   PD        0.286199    0.753600    0.196329     0.005394
PD539   PD        0.325337    0.717853    0.193055     0.005394
PD540   PD        0.361021    0.718129    0.156050     0.005394
PD541   PD        0.355785    0.755090    0.191905     0.005394
AU542   AU        0.393174    0.721092    0.194121     0.007504
PD543   PD        0.393310    0.755041    0.155519     0.005394
PD544   PD        0.433971    0.719438    0.158114     0.005394
PD545   PD        0.428780    0.754706    0.194709     0.005394
AU546   AU        0.468273    0.716290    0.196317     0.007504
PD547   PD        0.464218    0.754753    0.151580     0.005394
PD548   PD        0.500697    0.719684    0.155797     0.005394
PD549   PD        0.503564    0.753888    0.193922     0.005394
AU550   AU        0.538933    0.715664    0.193896     0.007504
PD551   PD        0.573361    0.714783    0.159015     0.005394
PD552   PD        0.576088    0.750418    0.192385     0.005394
PD553   PD        0.611972    0.717522    0.193065     0.005394
PD554   PD        0.394274    0.788786    0.195342     0.005394
PD555   PD        0.466636    0.786697    0.192542     0.005394
PD556   PD        0.356946    0.042353    0.268760     0.005394
PD557   PD        0.430692    0.042585    0.264654     0.005394
AU558   AU        0.500108    0.039896    0.266983     0.007504
PD559   PD        0.216615    0.108808    0.268672     0.005394
PD560   PD        0.253521    0.074804    0.266344     0.005394
PD561   PD        0.254256    0.111340    0.230621     0.005394
PD562   PD        0.286392    0.111481    0.268064     0.005394
PD563   PD        0.322314    0.076668    0.269002     0.005394
PD564   PD        0.324900    0.110320    0.230990     0.005394
PD565   PD        0.358870    0.076002    0.228888     0.005394
PD566   PD        0.357997    0.110811    0.267941     0.005394
PD567   PD        0.392917    0.077158    0.267395     0.005394
AU568   AU        0.395585    0.109759    0.229328     0.007504
PD569   PD        0.431863    0.074789    0.224303     0.005394
PD570   PD        0.432344    0.110698    0.266689     0.005394
PD571   PD        0.467563    0.076137    0.267386     0.005394
AU572   AU        0.468536    0.110721    0.228221     0.007504
PD573   PD        0.503565    0.076665    0.230763     0.005394
PD574   PD        0.503093    0.109922    0.266498     0.005394
AU575   AU        0.541240    0.073905    0.266252     0.007504
PD576   PD        0.539085    0.109179    0.229770     0.005394
PD577   PD        0.575248    0.110720    0.265365     0.005394
PD578   PD        0.609743    0.076648    0.267859     0.005394
PD579   PD        0.611239    0.109699    0.228879     0.005394
PD580   PD        0.644603    0.108712    0.266231     0.005394
PD581   PD        0.146493    0.181717    0.266006     0.005394
AU582   AU        0.180613    0.146638    0.265578     0.007504
PD583   PD        0.182187    0.183090    0.228377     0.005394
PD584   PD        0.217061    0.144326    0.223074     0.005394
PD585   PD        0.217650    0.177792    0.264771     0.005394
PD586   PD        0.252544    0.144213    0.266198     0.005394
AU587   AU        0.252615    0.178503    0.230385     0.007504
PD588   PD        0.289733    0.145684    0.230187     0.005394
AU589   AU        0.288300    0.179760    0.267201     0.007504
PD590   PD        0.324306    0.146463    0.267512     0.005394
PD591   PD        0.325642    0.180345    0.229401     0.005394
PD592   PD        0.360447    0.145744    0.229528     0.005394
PD593   PD        0.360848    0.176624    0.267873     0.005394
PD594   PD        0.396573    0.142422    0.270068     0.005394
PD595   PD        0.395884    0.178655    0.228196     0.005394
PD596   PD        0.433537    0.143793    0.225560     0.005394
AU597   AU        0.431616    0.177396    0.264730     0.007504
AU598   AU        0.468856    0.145020    0.264243     0.007504
PD599   PD        0.469402    0.177176    0.226321     0.005394
PD600   PD        0.505371    0.143187    0.225754     0.005394
AU601   AU        0.504212    0.178711    0.265861     0.007504
PD602   PD        0.537983    0.144799    0.264299     0.005394
PD603   PD        0.539306    0.179088    0.227655     0.005394
PD604   PD        0.575867    0.144834    0.227226     0.005394
AU605   AU        0.576024    0.177934    0.265651     0.007504
PD606   PD        0.610378    0.145776    0.267606     0.005394
PD607   PD        0.610023    0.177509    0.226442     0.005394
PD608   PD        0.647402    0.147551    0.230158     0.005394
PD609   PD        0.646887    0.178988    0.269546     0.005394
PD610   PD        0.679703    0.144132    0.269725     0.005394
AU611   AU        0.684235    0.178777    0.230014     0.007504
AU612   AU        0.718034    0.181363    0.268402     0.007504
AU613   AU        0.074703    0.257489    0.260450     0.007504
AU614   AU        0.111413    0.218876    0.263907     0.007504
PD615   PD        0.112986    0.253767    0.228273     0.005394
PD616   PD        0.145596    0.216551    0.226437     0.005394
PD617   PD        0.145760    0.250588    0.266902     0.005394
AU618   AU        0.180605    0.217115    0.268148     0.007504
AU619   AU        0.181090    0.251837    0.225533     0.007504
AU620   AU        0.219069    0.216083    0.228170     0.007504
AU621   AU        0.217505    0.251243    0.267037     0.007504
AU622   AU        0.254144    0.216300    0.265954     0.007504
AU623   AU        0.254200    0.253246    0.228438     0.007504
PD624   PD        0.291117    0.214301    0.228101     0.005394
AU625   AU        0.287817    0.252691    0.267658     0.007504
AU626   AU        0.324085    0.213352    0.267308     0.007504
AU627   AU        0.326121    0.250656    0.228889     0.007504
PD628   PD        0.359595    0.216289    0.228175     0.005394
AU629   AU        0.360327    0.248777    0.267308     0.007504
AU630   AU        0.396025    0.216024    0.266055     0.007504
PD631   PD        0.395001    0.250567    0.227491     0.005394
AU632   AU        0.430952    0.214223    0.229724     0.007504
AU633   AU        0.430820    0.251691    0.266815     0.007504
AU634   AU        0.467193    0.213774    0.267494     0.007504
AU635   AU        0.468210    0.247598    0.229667     0.007504
AU636   AU        0.503650    0.213374    0.228028     0.007504
AU637   AU        0.504042    0.247153    0.267052     0.007504
AU638   AU        0.539045    0.213727    0.265694     0.007504
PD639   PD        0.539787    0.248297    0.227675     0.005394
AU640   AU        0.575358    0.213795    0.228242     0.007504
AU641   AU        0.573424    0.249506    0.265148     0.007504
AU642   AU        0.610825    0.213596    0.267372     0.007504
PD643   PD        0.611018    0.249816    0.227954     0.005394
PD644   PD        0.644403    0.214447    0.226791     0.005394
PD645   PD        0.646664    0.252291    0.267844     0.005394
PD646   PD        0.680152    0.215404    0.266771     0.005394
PD647   PD        0.681975    0.250261    0.229360     0.005394
PD648   PD        0.717877    0.218877    0.230372     0.005394
PD649   PD        0.718468    0.251717    0.267460     0.005394
PD650   PD        0.750782    0.218817    0.266265     0.005394
PD651   PD        0.752752    0.253104    0.229401     0.005394
AU652   AU        0.787839    0.249977    0.267082     0.007504
PD653   PD        0.074434    0.322415    0.266973     0.005394
PD654   PD        0.111525    0.289214    0.265918     0.005394
AU655   AU        0.110443    0.322510    0.226697     0.007504
PD656   PD        0.145493    0.287293    0.228485     0.005394
PD657   PD        0.145073    0.321965    0.266370     0.005394
AU658   AU        0.179076    0.285934    0.265361     0.007504
PD659   PD        0.177138    0.319260    0.227077     0.005394
AU660   AU        0.216996    0.289892    0.227633     0.007504
AU661   AU        0.215623    0.320978    0.265409     0.007504
AU662   AU        0.254005    0.286896    0.268084     0.007504
AU663   AU        0.253151    0.323379    0.227180     0.007504
AU664   AU        0.288618    0.287423    0.228179     0.007504
AU665   AU        0.289290    0.322705    0.266171     0.007504
PD666   PD        0.324022    0.284886    0.268544     0.005394
AU667   AU        0.328226    0.323364    0.230841     0.007504
AU668   AU        0.362276    0.287663    0.230761     0.007504
AU669   AU        0.362987    0.324533    0.267976     0.007504
AU670   AU        0.394478    0.286228    0.269420     0.007504
AU671   AU        0.395880    0.324454    0.227107     0.007504
AU672   AU        0.433257    0.287358    0.231878     0.007504
AU673   AU        0.432787    0.323229    0.268395     0.007504
AU674   AU        0.467232    0.283192    0.267998     0.007504
AU675   AU        0.466137    0.321237    0.227540     0.007504
AU676   AU        0.505440    0.282916    0.226397     0.007504
AU677   AU        0.506275    0.319412    0.264520     0.007504
AU678   AU        0.539007    0.284673    0.267102     0.007504
AU679   AU        0.540556    0.323555    0.227964     0.007504
AU680   AU        0.575982    0.287658    0.229400     0.007504
AU681   AU        0.573707    0.320795    0.267719     0.007504
AU682   AU        0.609508    0.288074    0.267539     0.007504
PD683   PD        0.610972    0.324822    0.229314     0.005394
AU684   AU        0.645274    0.284748    0.228485     0.007504
AU685   AU        0.645845    0.321071    0.267259     0.007504
PD686   PD        0.681432    0.284859    0.267653     0.005394
AU687   AU        0.680589    0.322493    0.230648     0.007504
PD688   PD        0.715691    0.285348    0.232082     0.005394
PD689   PD        0.719188    0.322956    0.267333     0.005394
PD690   PD        0.752697    0.285056    0.268823     0.005394
PD691   PD        0.750927    0.321218    0.230313     0.005394
PD692   PD        0.784719    0.320712    0.269118     0.005394
PD693   PD        0.040556    0.361088    0.265317     0.005394
PD694   PD        0.073779    0.360871    0.226340     0.005394
PD695   PD        0.074286    0.393520    0.264479     0.005394
PD696   PD        0.109450    0.356794    0.267207     0.005394
AU697   AU        0.110011    0.396721    0.226719     0.007504
AU698   AU        0.143529    0.358739    0.229429     0.007504
AU699   AU        0.144581    0.393431    0.266763     0.007504
PD700   PD        0.177903    0.357753    0.268287     0.005394
AU701   AU        0.178819    0.394923    0.230884     0.007504
AU702   AU        0.214512    0.357351    0.229788     0.007504
AU703   AU        0.218097    0.392896    0.266418     0.007504
AU704   AU        0.250445    0.355078    0.266187     0.007504
AU705   AU        0.252175    0.392662    0.228014     0.007504
AU706   AU        0.290763    0.357450    0.229172     0.007504
AU707   AU        0.288681    0.392819    0.267488     0.007504
AU708   AU        0.325226    0.358455    0.268529     0.007504
AU709   AU        0.322086    0.395837    0.227308     0.007504
AU710   AU        0.360258    0.361745    0.228987     0.007504
AU711   AU        0.356675    0.395347    0.267066     0.007504
AU712   AU        0.394989    0.361345    0.268662     0.007504
AU713   AU        0.396214    0.397897    0.227627     0.007504
AU714   AU        0.430242    0.360225    0.227186     0.007504
AU715   AU        0.430945    0.393569    0.266262     0.007504
AU716   AU        0.466240    0.357366    0.265769     0.007504
AU717   AU        0.467076    0.393124    0.229997     0.007504
AU718   AU        0.503082    0.356682    0.229440     0.007504
AU719   AU        0.500188    0.395821    0.266730     0.007504
AU720   AU        0.536022    0.359123    0.266858     0.007504
AU721   AU        0.540004    0.393246    0.227266     0.007504
AU722   AU        0.577749    0.357498    0.232482     0.007504
AU723   AU        0.575080    0.394153    0.267005     0.007504
PD724   PD        0.615281    0.358130    0.269070     0.005394
AU725   AU        0.612596    0.395109    0.230884     0.007504
PD726   PD        0.646845    0.357357    0.230773     0.005394
PD727   PD        0.646698    0.393949    0.268631     0.005394
AU728   AU        0.683082    0.356563    0.268799     0.007504
AU729   AU        0.681236    0.394517    0.232175     0.007504
PD730   PD        0.718316    0.357071    0.232629     0.005394
AU731   AU        0.719858    0.394389    0.268897     0.007504
PD732   PD        0.753821    0.357374    0.268297     0.005394
AU733   AU        0.753335    0.394876    0.230130     0.007504
PD734   PD        0.786597    0.356903    0.229632     0.005394
PD735   PD        0.789491    0.393761    0.268396     0.005394
PD736   PD        0.820685    0.355987    0.266399     0.005394
PD737   PD        0.041879    0.431905    0.264354     0.005394
PD738   PD        0.076892    0.433221    0.227159     0.005394
PD739   PD        0.075237    0.465433    0.265441     0.005394
PD740   PD        0.109542    0.430038    0.266433     0.005394
PD741   PD        0.112559    0.467079    0.229105     0.005394
PD742   PD        0.145184    0.432053    0.226987     0.005394
PD743   PD        0.144957    0.466583    0.266495     0.005394
AU744   AU        0.180333    0.430248    0.265774     0.007504
AU745   AU        0.180493    0.468291    0.228764     0.007504
AU746   AU        0.216171    0.430183    0.229982     0.007504
AU747   AU        0.215747    0.465683    0.264557     0.007504
AU748   AU        0.251443    0.430772    0.267091     0.007504
AU749   AU        0.252223    0.467882    0.226649     0.007504
AU750   AU        0.288358    0.432158    0.231560     0.007504
AU751   AU        0.286877    0.467208    0.267406     0.007504
AU752   AU        0.322536    0.431333    0.268771     0.007504
AU753   AU        0.323379    0.466455    0.230091     0.007504
AU754   AU        0.357161    0.430570    0.229644     0.007504
AU755   AU        0.360148    0.469273    0.268327     0.007504
AU756   AU        0.393472    0.428880    0.269301     0.007504
AU757   AU        0.394022    0.467134    0.228475     0.007504
AU758   AU        0.431382    0.431948    0.228506     0.007504
AU759   AU        0.431964    0.466648    0.266249     0.007504
AU760   AU        0.466150    0.430356    0.266324     0.007504
AU761   AU        0.468511    0.468441    0.228716     0.007504
AU762   AU        0.503447    0.431567    0.229277     0.007504
AU763   AU        0.504499    0.464986    0.270736     0.007504
AU764   AU        0.538314    0.429561    0.266292     0.007504
AU765   AU        0.538025    0.467481    0.228727     0.007504
AU766   AU        0.573886    0.432586    0.230689     0.007504
AU767   AU        0.574714    0.468973    0.268552     0.007504
AU768   AU        0.612534    0.431293    0.269495     0.007504
AU769   AU        0.609525    0.469523    0.228401     0.007504
AU770   AU        0.647974    0.428387    0.232232     0.007504
AU771   AU        0.648116    0.462881    0.269537     0.007504
PD772   PD        0.684557    0.427870    0.269913     0.005394
AU773   AU        0.680913    0.463837    0.230172     0.007504
PD774   PD        0.718054    0.432943    0.231801     0.005394
AU775   AU        0.718642    0.465224    0.271203     0.007504
PD776   PD        0.756268    0.430197    0.263318     0.005394
PD777   PD        0.753186    0.469006    0.232195     0.005394
PD778   PD        0.788899    0.431915    0.229776     0.005394
PD779   PD        0.788734    0.465399    0.270174     0.005394
PD780   PD        0.825069    0.428094    0.268495     0.005394
PD781   PD        0.040717    0.501008    0.265965     0.005394
PD782   PD        0.075220    0.498846    0.226017     0.005394
PD783   PD        0.075165    0.534058    0.266014     0.005394
PD784   PD        0.109833    0.500085    0.267806     0.005394
AU785   AU        0.107167    0.537715    0.226427     0.007504
PD786   PD        0.143889    0.504326    0.229180     0.005394
PD787   PD        0.144115    0.536820    0.266173     0.005394
PD788   PD        0.180728    0.502803    0.264040     0.005394
PD789   PD        0.178345    0.540582    0.228920     0.005394
PD790   PD        0.214436    0.501961    0.228761     0.005394
AU791   AU        0.215389    0.538269    0.265508     0.007504
AU792   AU        0.250624    0.504506    0.267355     0.007504
AU793   AU        0.249677    0.537943    0.226888     0.007504
AU794   AU        0.285239    0.503513    0.229178     0.007504
AU795   AU        0.286387    0.538692    0.265233     0.007504
AU796   AU        0.322438    0.506361    0.269515     0.007504
PD797   PD        0.323819    0.537221    0.228712     0.005394
AU798   AU        0.358212    0.501856    0.230158     0.007504
AU799   AU        0.358299    0.539107    0.266367     0.007504
AU800   AU        0.397305    0.503222    0.267640     0.007504
AU801   AU        0.395513    0.536864    0.231033     0.007504
AU802   AU        0.433146    0.502663    0.230009     0.007504
PD803   PD        0.430969    0.538769    0.266651     0.005394
AU804   AU        0.468655    0.503711    0.268126     0.007504
AU805   AU        0.467447    0.540252    0.230485     0.007504
AU806   AU        0.502643    0.504769    0.230195     0.007504
AU807   AU        0.502621    0.539595    0.267883     0.007504
AU808   AU        0.537739    0.502336    0.269115     0.007504
AU809   AU        0.538096    0.541086    0.231487     0.007504
AU810   AU        0.573931    0.503770    0.230726     0.007504
PD811   PD        0.575642    0.540389    0.267266     0.005394
AU812   AU        0.610606    0.502736    0.269721     0.007504
AU813   AU        0.610431    0.536234    0.228342     0.007504
AU814   AU        0.647231    0.503046    0.229948     0.007504
AU815   AU        0.647382    0.540672    0.270605     0.007504
PD816   PD        0.683195    0.500064    0.268341     0.005394
PD817   PD        0.683235    0.536803    0.232349     0.005394
PD818   PD        0.717050    0.502648    0.231369     0.005394
AU819   AU        0.717521    0.540122    0.271135     0.007504
PD820   PD        0.750939    0.502414    0.269332     0.005394
PD821   PD        0.749969    0.538746    0.231986     0.005394
PD822   PD        0.785802    0.503007    0.231018     0.005394
PD823   PD        0.784492    0.539001    0.269619     0.005394
PD824   PD        0.820181    0.502403    0.268117     0.005394
PD825   PD        0.072790    0.611764    0.269053     0.005394
AU826   AU        0.106492    0.572682    0.266235     0.007504
PD827   PD        0.108683    0.608067    0.230564     0.005394
PD828   PD        0.145061    0.573498    0.229323     0.005394
PD829   PD        0.145742    0.610424    0.269154     0.005394
AU830   AU        0.179249    0.575252    0.265963     0.007504
AU831   AU        0.179832    0.611148    0.230034     0.007504
AU832   AU        0.216232    0.576025    0.228959     0.007504
PD833   PD        0.215736    0.610808    0.266497     0.005394
PD834   PD        0.250902    0.572739    0.265019     0.005394
AU835   AU        0.250998    0.611560    0.231137     0.007504
PD836   PD        0.285845    0.575879    0.229266     0.005394
AU837   AU        0.286951    0.611112    0.268845     0.007504
AU838   AU        0.320928    0.575020    0.267352     0.007504
AU839   AU        0.324916    0.613533    0.230404     0.007504
AU840   AU        0.359238    0.573800    0.229398     0.007504
AU841   AU        0.357473    0.611902    0.268256     0.007504
AU842   AU        0.395207    0.575827    0.269251     0.007504
AU843   AU        0.396035    0.610400    0.230147     0.007504
AU844   AU        0.429241    0.576499    0.230590     0.007504
AU845   AU        0.430416    0.612601    0.268989     0.007504
AU846   AU        0.464405    0.575797    0.266249     0.007504
AU847   AU        0.466292    0.613151    0.229660     0.007504
AU848   AU        0.502378    0.577366    0.228068     0.007504
AU849   AU        0.504037    0.611465    0.268275     0.007504
AU850   AU        0.539649    0.575446    0.268701     0.007504
PD851   PD        0.537814    0.611523    0.227752     0.005394
AU852   AU        0.577381    0.574503    0.230742     0.007504
PD853   PD        0.575834    0.609090    0.267509     0.005394
PD854   PD        0.610946    0.574362    0.269193     0.005394
PD855   PD        0.611219    0.608600    0.231494     0.005394
AU856   AU        0.646553    0.572949    0.229819     0.007504
AU857   AU        0.646562    0.608475    0.270226     0.007504
PD858   PD        0.682345    0.572899    0.268512     0.005394
PD859   PD        0.682385    0.608566    0.230313     0.005394
PD860   PD        0.716116    0.572646    0.230464     0.005394
AU861   AU        0.714489    0.608197    0.271588     0.007504
PD862   PD        0.751470    0.572480    0.269128     0.005394
AU863   AU        0.751053    0.609340    0.233408     0.007504
PD864   PD        0.785395    0.611884    0.271366     0.005394
PD865   PD        0.109400    0.644144    0.264978     0.005394
PD866   PD        0.145437    0.643602    0.229997     0.005394
PD867   PD        0.146987    0.680763    0.267908     0.005394
AU868   AU        0.180420    0.644944    0.269854     0.007504
PD869   PD        0.182743    0.679725    0.232068     0.005394
PD870   PD        0.212989    0.643897    0.228328     0.005394
PD871   PD        0.216889    0.681269    0.268147     0.005394
AU872   AU        0.251051    0.646333    0.268298     0.007504
PD873   PD        0.250890    0.680116    0.231971     0.005394
PD874   PD        0.286533    0.646771    0.231529     0.005394
PD875   PD        0.285410    0.684059    0.266301     0.005394
AU876   AU        0.323440    0.647331    0.267780     0.007504
AU877   AU        0.323738    0.683356    0.232399     0.007504
PD878   PD        0.361264    0.648130    0.231869     0.005394
AU879   AU        0.359591    0.683111    0.267572     0.007504
AU880   AU        0.393486    0.647389    0.270489     0.007504
PD881   PD        0.394800    0.685588    0.230829     0.005394
AU882   AU        0.430927    0.647693    0.232538     0.007504
AU883   AU        0.428458    0.685481    0.269324     0.007504
AU884   AU        0.466797    0.646909    0.268716     0.007504
AU885   AU        0.463623    0.683777    0.233347     0.007504
AU886   AU        0.502562    0.648866    0.228771     0.007504
AU887   AU        0.505173    0.682905    0.268552     0.007504
AU888   AU        0.540738    0.645025    0.267636     0.007504
PD889   PD        0.539728    0.681032    0.232408     0.005394
PD890   PD        0.574858    0.643974    0.230004     0.005394
PD891   PD        0.575821    0.680921    0.270756     0.005394
PD892   PD        0.609159    0.645238    0.267763     0.005394
PD893   PD        0.611803    0.681061    0.229180     0.005394
PD894   PD        0.647218    0.643697    0.231622     0.005394
PD895   PD        0.645745    0.679380    0.268102     0.005394
AU896   AU        0.681500    0.643876    0.270002     0.007504
PD897   PD        0.682590    0.681140    0.230509     0.005394
PD898   PD        0.718181    0.646046    0.231454     0.005394
AU899   AU        0.715665    0.681997    0.270892     0.007504
PD900   PD        0.749153    0.644251    0.272574     0.005394
PD901   PD        0.181995    0.715026    0.267727     0.005394
PD902   PD        0.215446    0.716440    0.230708     0.005394
PD903   PD        0.216212    0.752720    0.267532     0.005394
PD904   PD        0.249178    0.716997    0.266195     0.005394
PD905   PD        0.248940    0.753450    0.230825     0.005394
PD906   PD        0.285550    0.717392    0.229810     0.005394
PD907   PD        0.284467    0.751780    0.265307     0.005394
PD908   PD        0.319169    0.717263    0.266957     0.005394
PD909   PD        0.322943    0.753331    0.229807     0.005394
PD910   PD        0.358560    0.719017    0.230169     0.005394
AU911   AU        0.357159    0.754027    0.269571     0.007504
PD912   PD        0.393358    0.719767    0.270648     0.005394
PD913   PD        0.396806    0.755154    0.235068     0.005394
PD914   PD        0.430076    0.718939    0.231403     0.005394
PD915   PD        0.432422    0.753449    0.268913     0.005394
AU916   AU        0.467514    0.718135    0.268102     0.007504
PD917   PD        0.468465    0.752337    0.230463     0.005394
PD918   PD        0.504967    0.717361    0.233773     0.005394
PD919   PD        0.504659    0.754247    0.268254     0.005394
PD920   PD        0.541519    0.718612    0.268366     0.005394
PD921   PD        0.541457    0.751077    0.233063     0.005394
AU922   AU        0.576454    0.715770    0.231056     0.007504
PD923   PD        0.575201    0.752158    0.268262     0.005394
PD924   PD        0.610006    0.717385    0.268737     0.005394
PD925   PD        0.613225    0.750233    0.231704     0.005394
PD926   PD        0.648167    0.716615    0.229590     0.005394
PD927   PD        0.646469    0.749744    0.269183     0.005394
PD928   PD        0.678973    0.714511    0.269141     0.005394
PD929   PD        0.249496    0.788602    0.269150     0.005394
PD930   PD        0.321958    0.786948    0.266980     0.005394
PD931   PD        0.359729    0.788179    0.231932     0.005394
PD932   PD        0.356709    0.820733    0.269899     0.005394
PD933   PD        0.397032    0.787664    0.268518     0.005394
PD934   PD        0.431092    0.788113    0.230905     0.005394
PD935   PD        0.432370    0.821119    0.269863     0.005394
PD936   PD        0.466728    0.788504    0.270376     0.005394
PD937   PD        0.502569    0.787074    0.231676     0.005394
PD938   PD        0.501568    0.821791    0.268155     0.005394
PD939   PD        0.539348    0.790084    0.266998     0.005394
PD940   PD        0.613098    0.784841    0.270515     0.005394
PD941   PD        0.288085    0.042780    0.343811     0.005394
PD942   PD        0.325284    0.042231    0.306448     0.005394
PD943   PD        0.360183    0.037521    0.341790     0.005394
PD944   PD        0.393364    0.040212    0.304866     0.005394
PD945   PD        0.429815    0.036529    0.341436     0.005394
PD946   PD        0.464897    0.039815    0.302130     0.005394
PD947   PD        0.500035    0.039945    0.339602     0.005394
PD948   PD        0.537745    0.041665    0.305142     0.005394
PD949   PD        0.574818    0.040615    0.345104     0.005394
PD950   PD        0.181133    0.113105    0.304008     0.005394
PD951   PD        0.218186    0.109857    0.342520     0.005394
PD952   PD        0.252632    0.077143    0.341699     0.005394
PD953   PD        0.252260    0.110658    0.304492     0.005394
PD954   PD        0.285437    0.073599    0.304985     0.005394
PD955   PD        0.288276    0.110594    0.341826     0.005394
PD956   PD        0.321537    0.077920    0.341660     0.005394
PD957   PD        0.324282    0.109871    0.305036     0.005394
PD958   PD        0.360457    0.074869    0.305686     0.005394
PD959   PD        0.356246    0.110500    0.343977     0.005394
PD960   PD        0.397085    0.075046    0.344316     0.005394
PD961   PD        0.394867    0.110010    0.307037     0.005394
AU962   AU        0.430654    0.073126    0.303945     0.007504
PD963   PD        0.431486    0.109470    0.345667     0.005394
PD964   PD        0.463997    0.072990    0.341806     0.005394
PD965   PD        0.467680    0.111735    0.305391     0.005394
PD966   PD        0.502255    0.074835    0.305636     0.005394
AU967   AU        0.502664    0.109766    0.343084     0.007504
AU968   AU        0.535357    0.074082    0.344799     0.007504
AU969   AU        0.539392    0.108588    0.302089     0.007504
PD970   PD        0.576178    0.074479    0.304798     0.005394
AU971   AU        0.573328    0.108600    0.347217     0.007504
PD972   PD        0.611054    0.074818    0.341523     0.005394
PD973   PD        0.610643    0.108921    0.306771     0.005394
PD974   PD        0.646418    0.108770    0.344998     0.005394
AU975   AU        0.681542    0.107077    0.302936     0.007504
PD976   PD        0.113404    0.180357    0.305150     0.005394
PD977   PD        0.147284    0.147145    0.305643     0.005394
PD978   PD        0.146353    0.180577    0.341678     0.005394
AU979   AU        0.181666    0.145139    0.345019     0.007504
AU980   AU        0.181404    0.180558    0.305079     0.007504
PD981   PD        0.217425    0.144813    0.303128     0.005394
AU982   AU        0.215935    0.180293    0.344031     0.007504
AU983   AU        0.250722    0.145704    0.342112     0.007504
PD984   PD        0.252217    0.179426    0.302786     0.005394
PD985   PD        0.288347    0.144661    0.305384     0.005394
AU986   AU        0.286669    0.178819    0.342819     0.007504
PD987   PD        0.321250    0.144483    0.345086     0.005394
AU988   AU        0.322900    0.179469    0.307344     0.007504
AU989   AU        0.358981    0.143533    0.307164     0.007504
AU990   AU        0.360568    0.177936    0.343866     0.007504
PD991   PD        0.395118    0.141190    0.342565     0.005394
AU992   AU        0.396649    0.177100    0.304013     0.007504
AU993   AU        0.431225    0.142366    0.304809     0.007504
AU994   AU        0.431896    0.177365    0.342901     0.007504
PD995   PD        0.468394    0.143149    0.345606     0.005394
AU996   AU        0.468036    0.177823    0.303395     0.007504
PD997   PD        0.504020    0.143127    0.305196     0.005394
AU998   AU        0.505133    0.177990    0.346467     0.007504
AU999   AU        0.540162    0.142513    0.345007     0.007504
AU1000   AU        0.540768    0.176740    0.305424     0.007504
PD1001   PD        0.575629    0.142029    0.306097     0.005394
PD1002   PD        0.577200    0.178920    0.346004     0.005394
AU1003   AU        0.611731    0.143225    0.345958     0.007504
PD1004   PD        0.609948    0.178475    0.305582     0.005394
PD1005   PD        0.643652    0.142345    0.305690     0.005394
PD1006   PD        0.649432    0.177856    0.343832     0.005394
PD1007   PD        0.683347    0.139995    0.343361     0.005394
PD1008   PD        0.681773    0.179522    0.305696     0.005394
PD1009   PD        0.715753    0.145409    0.305146     0.005394
AU1010   AU        0.714284    0.179582    0.343866     0.007504
PD1011   PD        0.750944    0.178892    0.305936     0.005394
PD1012   PD        0.077553    0.250228    0.344519     0.005394
PD1013   PD        0.110490    0.215603    0.341797     0.005394
PD1014   PD        0.110607    0.252402    0.302197     0.005394
PD1015   PD        0.145818    0.215006    0.304111     0.005394
AU1016   AU        0.144095    0.252076    0.342091     0.007504
PD1017   PD        0.179274    0.215865    0.343064     0.005394
PD1018   PD        0.182600    0.250568    0.305777     0.005394
AU1019   AU        0.216891    0.214158    0.306371     0.007504
AU1020   AU        0.215809    0.249508    0.344166     0.007504
AU1021   AU        0.251449    0.216206    0.344723     0.007504
PD1022   PD        0.251931    0.249660    0.306552     0.005394
AU1023   AU        0.287097    0.215334    0.306218     0.007504
AU1024   AU        0.289860    0.250510    0.343460     0.007504
AU1025   AU        0.322402    0.214976    0.343677     0.007504
AU1026   AU        0.325278    0.249996    0.303684     0.007504
AU1027   AU        0.360458    0.212748    0.305112     0.007504
AU1028   AU        0.358231    0.249449    0.344990     0.007504
AU1029   AU        0.394853    0.214135    0.342990     0.007504
AU1030   AU        0.394891    0.251991    0.305845     0.007504
AU1031   AU        0.431216    0.213702    0.305827     0.007504
AU1032   AU        0.430548    0.252006    0.345386     0.007504
AU1033   AU        0.467912    0.212042    0.344292     0.007504
AU1034   AU        0.464973    0.248726    0.305479     0.007504
AU1035   AU        0.504511    0.214530    0.305687     0.007504
AU1036   AU        0.504168    0.250281    0.346372     0.007504
AU1037   AU        0.541156    0.212461    0.345461     0.007504
PD1038   PD        0.537474    0.247631    0.303883     0.005394
AU1039   AU        0.574276    0.214046    0.305718     0.007504
AU1040   AU        0.577298    0.249050    0.345823     0.007504
AU1041   AU        0.613524    0.214446    0.343437     0.007504
AU1042   AU        0.612131    0.249682    0.306546     0.007504
PD1043   PD        0.647788    0.213086    0.305781     0.005394
AU1044   AU        0.646671    0.248421    0.345034     0.007504
PD1045   PD        0.681228    0.214823    0.342341     0.005394
PD1046   PD        0.682286    0.248430    0.304332     0.005394
PD1047   PD        0.717412    0.214744    0.308509     0.005394
PD1048   PD        0.717880    0.249578    0.345189     0.005394
AU1049   AU        0.755316    0.213654    0.343227     0.007504
AU1050   AU        0.752935    0.250862    0.308451     0.007504
PD1051   PD        0.788681    0.250793    0.346078     0.005394
PD1052   PD        0.040706    0.286751    0.340742     0.005394
PD1053   PD        0.040578    0.324431    0.303377     0.005394
PD1054   PD        0.074110    0.289146    0.302956     0.005394
PD1055   PD        0.073621    0.323367    0.339282     0.005394
PD1056   PD        0.108300    0.288300    0.342901     0.005394
PD1057   PD        0.109159    0.321861    0.306160     0.005394
PD1058   PD        0.144995    0.285899    0.305477     0.005394
PD1059   PD        0.145158    0.325230    0.340930     0.005394
AU1060   AU        0.181743    0.286375    0.341422     0.007504
PD1061   PD        0.179924    0.322016    0.302976     0.005394
AU1062   AU        0.217971    0.285411    0.303542     0.007504
AU1063   AU        0.216139    0.322803    0.341261     0.007504
AU1064   AU        0.253594    0.284138    0.344548     0.007504
AU1065   AU        0.254160    0.322439    0.308255     0.007504
AU1066   AU        0.291594    0.285745    0.304783     0.007504
AU1067   AU        0.287877    0.324044    0.346328     0.007504
AU1068   AU        0.324547    0.286886    0.343583     0.007504
AU1069   AU        0.324490    0.321078    0.305353     0.007504
AU1070   AU        0.360624    0.286786    0.304663     0.007504
AU1071   AU        0.357153    0.322364    0.347435     0.007504
AU1072   AU        0.393435    0.284042    0.344815     0.007504
AU1073   AU        0.394543    0.322537    0.308589     0.007504
AU1074   AU        0.431517    0.285500    0.304176     0.007504
AU1075   AU        0.431051    0.322822    0.342850     0.007504
AU1076   AU        0.467996    0.286627    0.342496     0.007504
AU1077   AU        0.467512    0.323669    0.306623     0.007504
AU1078   AU        0.504466    0.284946    0.303763     0.007504
AU1079   AU        0.504224    0.321502    0.344998     0.007504
AU1080   AU        0.539311    0.283676    0.343047     0.007504
AU1081   AU        0.536331    0.323183    0.304286     0.007504
AU1082   AU        0.574765    0.282463    0.304792     0.007504
AU1083   AU        0.573046    0.319684    0.342277     0.007504
AU1084   AU        0.609300    0.284749    0.344124     0.007504
AU1085   AU        0.609227    0.320092    0.305184     0.007504
PD1086   PD        0.645708    0.285620    0.306468     0.005394
AU1087   AU        0.645983    0.320930    0.342799     0.007504
AU1088   AU        0.680474    0.282889    0.343050     0.007504
PD1089   PD        0.682135    0.318532    0.305709     0.005394
PD1090   PD        0.717789    0.285498    0.305438     0.005394
AU1091   AU        0.717883    0.320324    0.344564     0.007504
AU1092   AU        0.753235    0.285430    0.344845     0.007504
AU1093   AU        0.751133    0.319705    0.307406     0.007504
PD1094   PD        0.786478    0.284025    0.306665     0.005394
PD1095   PD        0.787117    0.321476    0.345511     0.005394
PD1096   PD        0.820922    0.288702    0.346391     0.005394
PD1097   PD        0.821077    0.319791    0.305727     0.005394
PD1098   PD        0.039733    0.359727    0.339790     0.005394
PD1099   PD        0.039051    0.395511    0.302084     0.005394
PD1100   PD        0.074834    0.358285    0.304322     0.005394
PD1101   PD        0.073210    0.395818    0.342093     0.005394
AU1102   AU        0.107180    0.357815    0.342264     0.007504
AU1103   AU        0.107332    0.393248    0.303874     0.007504
PD1104   PD        0.142304    0.356774    0.304022     0.005394
AU1105   AU        0.142282    0.393669    0.343999     0.007504
AU1106   AU        0.179895    0.358580    0.341751     0.007504
AU1107   AU        0.181319    0.394678    0.306371     0.007504
AU1108   AU        0.214670    0.356535    0.305513     0.007504
AU1109   AU        0.217266    0.394177    0.342548     0.007504
AU1110   AU        0.252486    0.358671    0.344140     0.007504
AU1111   AU        0.250897    0.394108    0.304663     0.007504
AU1112   AU        0.286624    0.358043    0.304527     0.007504
AU1113   AU        0.285645    0.395547    0.342669     0.007504
AU1114   AU        0.322940    0.359800    0.347343     0.007504
AU1115   AU        0.322573    0.394867    0.307201     0.007504
AU1116   AU        0.356588    0.358217    0.308892     0.007504
AU1117   AU        0.358692    0.394910    0.346641     0.007504
AU1118   AU        0.395115    0.357983    0.344414     0.007504
AU1119   AU        0.392210    0.395353    0.308501     0.007504
AU1120   AU        0.429540    0.359634    0.305695     0.007504
AU1121   AU        0.431609    0.394325    0.345383     0.007504
AU1122   AU        0.465286    0.358744    0.343625     0.007504
AU1123   AU        0.465857    0.394323    0.304502     0.007504
AU1124   AU        0.502023    0.359387    0.307667     0.007504
AU1125   AU        0.503901    0.395355    0.345450     0.007504
AU1126   AU        0.537606    0.357954    0.345568     0.007504
AU1127   AU        0.538871    0.395754    0.305976     0.007504
AU1128   AU        0.573102    0.356996    0.306526     0.007504
AU1129   AU        0.575681    0.392655    0.343341     0.007504
AU1130   AU        0.611270    0.356766    0.345371     0.007504
AU1131   AU        0.610788    0.393101    0.304896     0.007504
PD1132   PD        0.646879    0.357935    0.304395     0.005394
AU1133   AU        0.646249    0.392269    0.345847     0.007504
AU1134   AU        0.682437    0.356079    0.342905     0.007504
AU1135   AU        0.683953    0.392460    0.305739     0.007504
AU1136   AU        0.717358    0.356810    0.304510     0.007504
AU1137   AU        0.720625    0.394044    0.345893     0.007504
PD1138   PD        0.752833    0.356062    0.343516     0.005394
AU1139   AU        0.755772    0.393264    0.304699     0.007504
PD1140   PD        0.790182    0.355947    0.305997     0.005394
AU1141   AU        0.789280    0.391006    0.345874     0.007504
PD1142   PD        0.823851    0.355647    0.345834     0.005394
PD1143   PD        0.822927    0.392564    0.305413     0.005394
PD1144   PD        0.035843    0.428131    0.341565     0.005394
PD1145   PD        0.038193    0.466130    0.302911     0.005394
PD1146   PD        0.072050    0.430101    0.305752     0.005394
AU1147   AU        0.071487    0.466318    0.343208     0.007504
AU1148   AU        0.107701    0.429454    0.341362     0.007504
PD1149   PD        0.109931    0.462902    0.304046     0.005394
AU1150   AU        0.145877    0.430327    0.302858     0.007504
AU1151   AU        0.145406    0.465900    0.343390     0.007504
AU1152   AU        0.180205    0.430020    0.343136     0.007504
AU1153   AU        0.180917    0.467519    0.303262     0.007504
AU1154   AU        0.215736    0.430789    0.303665     0.007504
AU1155   AU        0.215279    0.466553    0.340619     0.007504
AU1156   AU        0.249933    0.430232    0.343284     0.007504
PD1157   PD        0.250535    0.467673    0.303134     0.005394
AU1158   AU        0.285520    0.431984    0.309558     0.007504
AU1159   AU        0.287052    0.467037    0.344760     0.007504
AU1160   AU        0.323496    0.433234    0.345435     0.007504
AU1161   AU        0.323833    0.467999    0.305421     0.007504
AU1162   AU        0.359298    0.433212    0.306793     0.007504
AU1163   AU        0.360478    0.469487    0.345127     0.007504
AU1164   AU        0.394561    0.432687    0.343576     0.007504
AU1165   AU        0.396975    0.467725    0.304846     0.007504
AU1166   AU        0.430934    0.430381    0.307336     0.007504
AU1167   AU        0.432543    0.467838    0.345502     0.007504
AU1168   AU        0.467435    0.429702    0.341673     0.007504
AU1169   AU        0.466923    0.465690    0.306486     0.007504
AU1170   AU        0.502104    0.430354    0.304863     0.007504
AU1171   AU        0.505323    0.463615    0.344980     0.007504
AU1172   AU        0.541396    0.428460    0.345263     0.007504
AU1173   AU        0.539931    0.462729    0.305986     0.007504
AU1174   AU        0.575800    0.428860    0.306084     0.007504
AU1175   AU        0.574349    0.465985    0.344842     0.007504
AU1176   AU        0.610890    0.427273    0.343610     0.007504
AU1177   AU        0.613132    0.465418    0.308289     0.007504
AU1178   AU        0.648396    0.428540    0.307047     0.007504
AU1179   AU        0.647861    0.461973    0.345764     0.007504
AU1180   AU        0.682501    0.428699    0.342218     0.007504
AU1181   AU        0.682514    0.466598    0.307838     0.007504
AU1182   AU        0.722360    0.430531    0.307009     0.007504
AU1183   AU        0.721067    0.464353    0.346059     0.007504
AU1184   AU        0.755807    0.428127    0.343084     0.007504
PD1185   PD        0.755817    0.464938    0.306798     0.005394
PD1186   PD        0.789295    0.429604    0.305642     0.005394
PD1187   PD        0.790052    0.464141    0.346844     0.005394
AU1188   AU        0.822829    0.427421    0.346432     0.007504
AU1189   AU        0.825739    0.465482    0.306426     0.007504
PD1190   PD        0.038197    0.503136    0.342158     0.005394
PD1191   PD        0.038695    0.537257    0.300819     0.005394
AU1192   AU        0.073084    0.501878    0.304187     0.007504
PD1193   PD        0.070979    0.537217    0.343466     0.005394
AU1194   AU        0.108697    0.502095    0.343218     0.007504
AU1195   AU        0.108516    0.538682    0.302668     0.007504
AU1196   AU        0.142485    0.501813    0.305089     0.007504
AU1197   AU        0.143578    0.537836    0.343800     0.007504
AU1198   AU        0.180554    0.501134    0.343239     0.007504
AU1199   AU        0.176591    0.535302    0.304990     0.007504
AU1200   AU        0.215601    0.501079    0.304704     0.007504
AU1201   AU        0.215376    0.538733    0.343556     0.007504
AU1202   AU        0.249813    0.501892    0.344539     0.007504
AU1203   AU        0.251072    0.539736    0.306931     0.007504
AU1204   AU        0.287410    0.502552    0.306749     0.007504
AU1205   AU        0.287107    0.538897    0.344190     0.007504
AU1206   AU        0.322861    0.504679    0.343805     0.007504
AU1207   AU        0.322787    0.539443    0.307876     0.007504
AU1208   AU        0.360994    0.501639    0.305291     0.007504
AU1209   AU        0.359945    0.538405    0.344513     0.007504
AU1210   AU        0.395557    0.504152    0.341792     0.007504
AU1211   AU        0.396774    0.537361    0.303180     0.007504
AU1212   AU        0.431823    0.503674    0.306746     0.007504
AU1213   AU        0.430678    0.539472    0.346330     0.007504
AU1214   AU        0.467786    0.502403    0.342492     0.007504
AU1215   AU        0.466725    0.540962    0.305045     0.007504
AU1216   AU        0.503108    0.500826    0.307148     0.007504
AU1217   AU        0.502652    0.538168    0.343142     0.007504
AU1218   AU        0.539564    0.502187    0.347029     0.007504
AU1219   AU        0.540011    0.537607    0.307127     0.007504
AU1220   AU        0.574731    0.501978    0.306795     0.007504
AU1221   AU        0.574818    0.540326    0.346134     0.007504
AU1222   AU        0.607328    0.502250    0.346483     0.007504
AU1223   AU        0.611029    0.537205    0.305505     0.007504
AU1224   AU        0.648974    0.500483    0.306556     0.007504
AU1225   AU        0.648209    0.536964    0.344010     0.007504
AU1226   AU        0.680599    0.499575    0.347853     0.007504
AU1227   AU        0.682090    0.535822    0.307834     0.007504
PD1228   PD        0.719278    0.502634    0.308449     0.005394
AU1229   AU        0.716852    0.537656    0.347683     0.007504
AU1230   AU        0.755720    0.501213    0.347512     0.007504
PD1231   PD        0.755923    0.536403    0.309398     0.005394
PD1232   PD        0.790427    0.499749    0.307943     0.005394
AU1233   AU        0.787294    0.538369    0.346866     0.007504
AU1234   AU        0.824239    0.501441    0.346547     0.007504
PD1235   PD        0.819591    0.538359    0.307049     0.005394
PD1236   PD        0.039628    0.573808    0.345740     0.005394
PD1237   PD        0.072993    0.573107    0.305736     0.005394
PD1238   PD        0.076361    0.607347    0.345545     0.005394
PD1239   PD        0.108750    0.571697    0.342601     0.005394
PD1240   PD        0.108762    0.608932    0.303953     0.005394
AU1241   AU        0.143946    0.573019    0.304224     0.007504
AU1242   AU        0.141643    0.611962    0.341784     0.007504
AU1243   AU        0.179247    0.575365    0.342685     0.007504
PD1244   PD        0.181302    0.610825    0.305168     0.005394
AU1245   AU        0.213853    0.574057    0.304104     0.007504
AU1246   AU        0.214463    0.611144    0.343626     0.007504
AU1247   AU        0.248995    0.573922    0.345922     0.007504
AU1248   AU        0.249543    0.609817    0.305925     0.007504
AU1249   AU        0.285915    0.573472    0.306753     0.007504
AU1250   AU        0.284575    0.612204    0.344047     0.007504
AU1251   AU        0.323234    0.576361    0.346726     0.007504
AU1252   AU        0.322269    0.609416    0.306772     0.007504
AU1253   AU        0.357409    0.572828    0.307266     0.007504
AU1254   AU        0.358120    0.610829    0.345905     0.007504
AU1255   AU        0.394392    0.574365    0.343221     0.007504
AU1256   AU        0.393539    0.611141    0.307057     0.007504
AU1257   AU        0.431629    0.573483    0.305725     0.007504
AU1258   AU        0.428973    0.610950    0.345422     0.007504
AU1259   AU        0.463688    0.577924    0.346526     0.007504
AU1260   AU        0.465890    0.610141    0.306848     0.007504
AU1261   AU        0.504449    0.576287    0.309247     0.007504
AU1262   AU        0.503395    0.611993    0.345735     0.007504
AU1263   AU        0.538779    0.576176    0.345868     0.007504
AU1264   AU        0.539953    0.611121    0.306659     0.007504
AU1265   AU        0.574877    0.574965    0.307675     0.007504
AU1266   AU        0.577987    0.613549    0.346603     0.007504
AU1267   AU        0.611049    0.574333    0.347225     0.007504
AU1268   AU        0.612158    0.609385    0.308997     0.007504
AU1269   AU        0.648680    0.575577    0.308861     0.007504
AU1270   AU        0.646748    0.610785    0.349403     0.007504
PD1271   PD        0.683567    0.574277    0.347208     0.005394
PD1272   PD        0.682704    0.610078    0.309279     0.005394
PD1273   PD        0.715588    0.573308    0.309066     0.005394
PD1274   PD        0.714443    0.609972    0.349387     0.005394
PD1275   PD        0.751220    0.573908    0.348263     0.005394
PD1276   PD        0.748657    0.608567    0.309512     0.005394
PD1277   PD        0.784334    0.574819    0.308313     0.005394
PD1278   PD        0.784793    0.607590    0.347033     0.005394
PD1279   PD        0.820903    0.573911    0.346385     0.005394
PD1280   PD        0.107153    0.645493    0.340667     0.005394
PD1281   PD        0.108704    0.677705    0.301955     0.005394
PD1282   PD        0.146417    0.645938    0.304651     0.005394
AU1283   AU        0.142834    0.680728    0.341474     0.007504
PD1284   PD        0.179433    0.646985    0.345935     0.005394
PD1285   PD        0.180988    0.683792    0.305880     0.005394
AU1286   AU        0.214972    0.645572    0.304222     0.007504
PD1287   PD        0.212902    0.681690    0.345867     0.005394
PD1288   PD        0.247121    0.649113    0.342551     0.005394
AU1289   AU        0.250140    0.681719    0.303834     0.007504
AU1290   AU        0.285547    0.647732    0.303293     0.007504
PD1291   PD        0.284832    0.680264    0.341071     0.005394
AU1292   AU        0.321337    0.646549    0.342844     0.007504
AU1293   AU        0.322546    0.682385    0.304010     0.007504
AU1294   AU        0.358818    0.647110    0.306772     0.007504
AU1295   AU        0.355837    0.680529    0.343783     0.007504
AU1296   AU        0.393897    0.646304    0.346167     0.007504
AU1297   AU        0.393310    0.683448    0.307853     0.007504
AU1298   AU        0.431098    0.649515    0.307026     0.007504
AU1299   AU        0.430470    0.682124    0.346108     0.007504
PD1300   PD        0.464640    0.645557    0.343307     0.005394
AU1301   AU        0.466380    0.683382    0.305447     0.007504
AU1302   AU        0.503909    0.647592    0.308455     0.007504
AU1303   AU        0.502610    0.682643    0.343286     0.007504
AU1304   AU        0.540810    0.648073    0.343947     0.007504
AU1305   AU        0.542016    0.682193    0.305753     0.007504
AU1306   AU        0.576438    0.644110    0.305148     0.007504
AU1307   AU        0.577168    0.682989    0.345059     0.007504
AU1308   AU        0.614866    0.645968    0.349742     0.007504
AU1309   AU        0.609408    0.680875    0.306983     0.007504
PD1310   PD        0.646625    0.644672    0.307549     0.005394
PD1311   PD        0.646144    0.682360    0.348847     0.005394
AU1312   AU        0.682073    0.646076    0.350025     0.007504
PD1313   PD        0.681390    0.680061    0.309518     0.005394
PD1314   PD        0.715170    0.644143    0.311482     0.005394
PD1315   PD        0.717242    0.681026    0.348305     0.005394
PD1316   PD        0.752697    0.645121    0.347871     0.005394
PD1317   PD        0.749894    0.678888    0.311125     0.005394
AU1318   AU        0.144867    0.719509    0.303414     0.007504
PD1319   PD        0.181736    0.715203    0.346902     0.005394
PD1320   PD        0.183815    0.749813    0.307239     0.005394
PD1321   PD        0.214222    0.716500    0.304715     0.005394
AU1322   AU        0.215172    0.752905    0.344560     0.007504
PD1323   PD        0.254089    0.717655    0.342891     0.005394
PD1324   PD        0.249949    0.751931    0.306988     0.005394
PD1325   PD        0.284078    0.717714    0.302788     0.005394
PD1326   PD        0.286434    0.753344    0.342553     0.005394
AU1327   AU        0.319831    0.717740    0.340835     0.007504
AU1328   AU        0.320682    0.754036    0.304151     0.007504
AU1329   AU        0.356509    0.717937    0.304407     0.007504
PD1330   PD        0.356350    0.750348    0.345753     0.005394
AU1331   AU        0.393437    0.718593    0.343863     0.007504
PD1332   PD        0.393504    0.756003    0.306038     0.005394
PD1333   PD        0.429881    0.720926    0.305523     0.005394
PD1334   PD        0.426754    0.753947    0.344472     0.005394
AU1335   AU        0.465537    0.717912    0.343097     0.007504
PD1336   PD        0.468101    0.752712    0.307715     0.005394
AU1337   AU        0.504843    0.719952    0.304526     0.007504
PD1338   PD        0.502124    0.753878    0.344691     0.005394
AU1339   AU        0.540690    0.716617    0.343658     0.007504
AU1340   AU        0.540499    0.752639    0.306043     0.007504
PD1341   PD        0.576375    0.717905    0.308154     0.005394
AU1342   AU        0.573592    0.755147    0.345225     0.007504
AU1343   AU        0.612122    0.719679    0.349406     0.007504
PD1344   PD        0.610344    0.751890    0.306449     0.005394
AU1345   AU        0.645099    0.716136    0.306705     0.007504
PD1346   PD        0.644920    0.752910    0.347508     0.005394
PD1347   PD        0.677072    0.717799    0.352050     0.005394
PD1348   PD        0.676798    0.753012    0.309069     0.005394
PD1349   PD        0.712208    0.715559    0.309614     0.005394
PD1350   PD        0.251664    0.785926    0.346661     0.005394
PD1351   PD        0.285656    0.786844    0.307124     0.005394
PD1352   PD        0.284879    0.821362    0.343851     0.005394
PD1353   PD        0.322652    0.789623    0.343948     0.005394
PD1354   PD        0.322696    0.824887    0.309277     0.005394
PD1355   PD        0.358579    0.787114    0.308467     0.005394
PD1356   PD        0.359736    0.823646    0.344453     0.005394
PD1357   PD        0.392177    0.786492    0.346380     0.005394
PD1358   PD        0.395421    0.820095    0.305758     0.005394
PD1359   PD        0.430250    0.785532    0.307519     0.005394
PD1360   PD        0.429663    0.820887    0.344946     0.005394
PD1361   PD        0.463028    0.785102    0.344779     0.005394
PD1362   PD        0.467243    0.821571    0.310013     0.005394
AU1363   AU        0.504804    0.787885    0.307141     0.007504
PD1364   PD        0.501085    0.820173    0.346169     0.005394
PD1365   PD        0.539327    0.789843    0.345217     0.005394
PD1366   PD        0.541554    0.822507    0.306428     0.005394
PD1367   PD        0.574553    0.788924    0.304887     0.005394
PD1368   PD        0.575370    0.821691    0.346168     0.005394
PD1369   PD        0.610547    0.787444    0.342069     0.005394
PD1370   PD        0.252748    0.042888    0.381251     0.005394
PD1371   PD        0.288324    0.041522    0.418919     0.005394
PD1372   PD        0.321783    0.042970    0.379448     0.005394
AU1373   AU        0.353847    0.034950    0.421787     0.007504
PD1374   PD        0.393215    0.003218    0.419118     0.005394
PD1375   PD        0.394151    0.038764    0.379484     0.005394
PD1376   PD        0.427369    0.004057    0.380476     0.005394
AU1377   AU        0.430887    0.037705    0.418824     0.007504
AU1378   AU        0.465832    0.002309    0.418092     0.007504
PD1379   PD        0.466574    0.039473    0.381028     0.005394
AU1380   AU        0.502110    0.036696    0.419215     0.007504
PD1381   PD        0.536629    0.040658    0.380763     0.005394
PD1382   PD        0.574200    0.037700    0.421762     0.005394
AU1383   AU        0.611406    0.035884    0.378479     0.007504
PD1384   PD        0.146740    0.108452    0.419504     0.005394
PD1385   PD        0.183593    0.073339    0.420502     0.005394
PD1386   PD        0.183376    0.110677    0.383182     0.005394
PD1387   PD        0.217220    0.076758    0.378827     0.005394
AU1388   AU        0.218666    0.108870    0.420892     0.007504
PD1389   PD        0.255322    0.078070    0.422162     0.005394
AU1390   AU        0.252633    0.109916    0.382038     0.007504
PD1391   PD        0.287064    0.078064    0.382404     0.005394
PD1392   PD        0.290633    0.112288    0.422062     0.005394
PD1393   PD        0.323584    0.072999    0.418981     0.005394
PD1394   PD        0.322272    0.109962    0.382270     0.005394
PD1395   PD        0.358136    0.075256    0.377781     0.005394
AU1396   AU        0.356930    0.106696    0.420229     0.007504
AU1397   AU        0.394292    0.069216    0.420530     0.007504
PD1398   PD        0.391133    0.108079    0.382258     0.005394
AU1399   AU        0.431297    0.070884    0.381640     0.007504
AU1400   AU        0.429213    0.105773    0.419845     0.007504
PD1401   PD        0.468189    0.071685    0.419277     0.005394
PD1402   PD        0.466494    0.106886    0.382148     0.005394
PD1403   PD        0.500566    0.073318    0.383472     0.005394
PD1404   PD        0.500084    0.106073    0.422550     0.005394
PD1405   PD        0.539379    0.071088    0.422112     0.005394
AU1406   AU        0.537243    0.108775    0.383472     0.007504
PD1407   PD        0.573907    0.071644    0.383826     0.005394
AU1408   AU        0.575715    0.107366    0.421789     0.007504
AU1409   AU        0.611167    0.069743    0.417174     0.007504
PD1410   PD        0.609858    0.107790    0.385018     0.005394
PD1411   PD        0.648850    0.073107    0.380782     0.005394
PD1412   PD        0.645730    0.106778    0.419437     0.005394
PD1413   PD        0.681440    0.073308    0.421830     0.005394
AU1414   AU        0.681147    0.108626    0.384708     0.007504
PD1415   PD        0.714020    0.109954    0.422840     0.005394
PD1416   PD        0.075939    0.176338    0.417032     0.005394
PD1417   PD        0.110721    0.143003    0.419025     0.005394
PD1418   PD        0.108343    0.177981    0.379380     0.005394
PD1419   PD        0.144679    0.144695    0.380927     0.005394
PD1420   PD        0.144037    0.179962    0.421322     0.005394
PD1421   PD        0.181838    0.143444    0.418265     0.005394
AU1422   AU        0.177933    0.181936    0.381306     0.007504
PD1423   PD        0.218773    0.143755    0.383115     0.005394
PD1424   PD        0.214739    0.178265    0.423807     0.005394
PD1425   PD        0.252106    0.143278    0.423038     0.005394
AU1426   AU        0.250637    0.178611    0.381761     0.007504
AU1427   AU        0.286746    0.143350    0.384065     0.007504
AU1428   AU        0.288102    0.178419    0.421657     0.007504
PD1429   PD        0.323430    0.144570    0.421263     0.005394
AU1430   AU        0.322493    0.179559    0.380588     0.007504
AU1431   AU        0.359430    0.142144    0.383965     0.007504
AU1432   AU        0.358836    0.179801    0.421485     0.007504
AU1433   AU        0.394238    0.144703    0.422135     0.007504
AU1434   AU        0.394190    0.176465    0.380233     0.007504
AU1435   AU        0.431330    0.143105    0.385027     0.007504
AU1436   AU        0.429982    0.179366    0.421344     0.007504
AU1437   AU        0.465638    0.141803    0.421235     0.007504
AU1438   AU        0.467730    0.176353    0.382033     0.007504
AU1439   AU        0.503125    0.142634    0.384469     0.007504
AU1440   AU        0.504620    0.179398    0.420842     0.007504
AU1441   AU        0.538764    0.137825    0.424006     0.007504
AU1442   AU        0.542048    0.177886    0.381366     0.007504
PD1443   PD        0.578008    0.145184    0.383927     0.005394
AU1444   AU        0.575295    0.179318    0.422854     0.007504
AU1445   AU        0.610432    0.142114    0.422987     0.007504
AU1446   AU        0.613128    0.180043    0.382141     0.007504
AU1447   AU        0.646598    0.143463    0.383075     0.007504
PD1448   PD        0.647458    0.178988    0.422701     0.005394
PD1449   PD        0.679589    0.145098    0.421956     0.005394
AU1450   AU        0.682069    0.181241    0.383446     0.007504
PD1451   PD        0.715690    0.144047    0.384292     0.005394
PD1452   PD        0.713269    0.179932    0.423224     0.005394
PD1453   PD        0.748222    0.145164    0.422363     0.005394
AU1454   AU        0.750655    0.177506    0.382193     0.007504
PD1455   PD        0.786708    0.180117    0.421060     0.005394
PD1456   PD        0.041452    0.249820    0.376497     0.005394
PD1457   PD        0.075878    0.214630    0.380891     0.005394
PD1458   PD        0.075697    0.249368    0.417695     0.005394
AU1459   AU        0.107875    0.212464    0.420264     0.007504
PD1460   PD        0.109312    0.251114    0.380033     0.005394
AU1461   AU        0.142226    0.213207    0.381178     0.007504
PD1462   PD        0.141904    0.248214    0.420086     0.005394
PD1463   PD        0.178173    0.216426    0.419823     0.005394
AU1464   AU        0.178916    0.249004    0.379861     0.007504
AU1465   AU        0.215890    0.214512    0.381430     0.007504
AU1466   AU        0.215595    0.248887    0.418220     0.007504
AU1467   AU        0.249904    0.213432    0.419840     0.007504
PD1468   PD        0.253352    0.249337    0.378425     0.005394
AU1469   AU        0.287884    0.214228    0.382097     0.007504
AU1470   AU        0.287994    0.251466    0.421313     0.007504
AU1471   AU        0.323960    0.214388    0.419645     0.007504
AU1472   AU        0.324788    0.249376    0.380927     0.007504
PD1473   PD        0.359252    0.212615    0.381460     0.005394
AU1474   AU        0.356623    0.249608    0.422518     0.007504
AU1475   AU        0.392583    0.212914    0.420838     0.007504
AU1476   AU        0.396138    0.247272    0.383315     0.007504
AU1477   AU        0.432199    0.212060    0.379969     0.007504
AU1478   AU        0.429531    0.248428    0.421886     0.007504
AU1479   AU        0.466847    0.214053    0.418532     0.007504
AU1480   AU        0.467375    0.250653    0.382514     0.007504
AU1481   AU        0.501893    0.214012    0.385095     0.007504
AU1482   AU        0.504400    0.250356    0.422666     0.007504
AU1483   AU        0.541756    0.214279    0.421387     0.007504
AU1484   AU        0.541263    0.249037    0.382377     0.007504
AU1485   AU        0.576792    0.215297    0.383872     0.007504
AU1486   AU        0.576269    0.250366    0.422273     0.007504
AU1487   AU        0.610298    0.212621    0.423128     0.007504
AU1488   AU        0.612556    0.250568    0.385343     0.007504
PD1489   PD        0.648735    0.213816    0.383595     0.005394
PD1490   PD        0.645107    0.248212    0.424622     0.005394
PD1491   PD        0.680627    0.215521    0.423463     0.005394
AU1492   AU        0.681492    0.249449    0.383543     0.007504
PD1493   PD        0.715737    0.216188    0.382430     0.005394
PD1494   PD        0.717566    0.249563    0.422235     0.005394
AU1495   AU        0.749896    0.213928    0.419843     0.007504
PD1496   PD        0.749879    0.249384    0.383353     0.005394
PD1497   PD        0.787303    0.215178    0.383034     0.005394
PD1498   PD        0.785152    0.248773    0.423051     0.005394
PD1499   PD        0.824226    0.250282    0.384954     0.005394
PD1500   PD        0.042089    0.283563    0.417000     0.005394
PD1501   PD        0.040211    0.318257    0.377608     0.005394
PD1502   PD        0.076598    0.286847    0.379195     0.005394
AU1503   AU        0.075065    0.320716    0.416817     0.007504
PD1504   PD        0.108891    0.284529    0.419589     0.005394
PD1505   PD        0.109334    0.321679    0.379021     0.005394
AU1506   AU        0.141518    0.285870    0.382450     0.007504
PD1507   PD        0.143912    0.321709    0.418309     0.005394
AU1508   AU        0.178961    0.282999    0.419606     0.007504
AU1509   AU        0.179806    0.322577    0.380641     0.007504
AU1510   AU        0.215655    0.285341    0.382674     0.007504
AU1511   AU        0.213043    0.318795    0.421461     0.007504
AU1512   AU        0.252202    0.284924    0.420339     0.007504
AU1513   AU        0.249197    0.321277    0.383730     0.007504
AU1514   AU        0.287903    0.286200    0.382577     0.007504
AU1515   AU        0.285331    0.321696    0.420470     0.007504
AU1516   AU        0.323128    0.285794    0.421900     0.007504
AU1517   AU        0.322596    0.322640    0.386539     0.007504
AU1518   AU        0.357224    0.284994    0.384582     0.007504
AU1519   AU        0.358933    0.323195    0.423204     0.007504
AU1520   AU        0.395279    0.285778    0.423019     0.007504
AU1521   AU        0.394696    0.323937    0.383911     0.007504
AU1522   AU        0.429470    0.286752    0.383126     0.007504
AU1523   AU        0.432616    0.320226    0.421685     0.007504
AU1524   AU        0.467525    0.283912    0.421731     0.007504
AU1525   AU        0.468147    0.318634    0.381571     0.007504
AU1526   AU        0.503217    0.285604    0.383174     0.007504
AU1527   AU        0.505943    0.320342    0.419826     0.007504
AU1528   AU        0.541283    0.284110    0.422659     0.007504
AU1529   AU        0.539252    0.319943    0.384708     0.007504
AU1530   AU        0.576658    0.288023    0.383281     0.007504
AU1531   AU        0.577198    0.322450    0.422788     0.007504
AU1532   AU        0.613275    0.284471    0.422466     0.007504
AU1533   AU        0.611502    0.322951    0.381258     0.007504
AU1534   AU        0.646740    0.286900    0.385299     0.007504
AU1535   AU        0.647271    0.320169    0.425887     0.007504
AU1536   AU        0.682468    0.285969    0.422421     0.007504
AU1537   AU        0.680734    0.319524    0.382887     0.007504
PD1538   PD        0.717318    0.285653    0.383131     0.005394
AU1539   AU        0.717238    0.321249    0.419801     0.007504
PD1540   PD        0.750861    0.285293    0.421570     0.005394
PD1541   PD        0.753661    0.320056    0.386179     0.005394
PD1542   PD        0.787890    0.286003    0.386130     0.005394
PD1543   PD        0.786947    0.320583    0.422065     0.005394
PD1544   PD        0.821421    0.284046    0.424958     0.005394
PD1545   PD        0.822953    0.317423    0.385600     0.005394
PD1546   PD        0.004730    0.393713    0.420033     0.005394
PD1547   PD        0.040537    0.357528    0.419742     0.005394
PD1548   PD        0.039153    0.390159    0.380912     0.005394
PD1549   PD        0.073290    0.354946    0.378055     0.005394
AU1550   AU        0.073825    0.394765    0.419061     0.007504
AU1551   AU        0.106684    0.356315    0.417693     0.007504
AU1552   AU        0.105889    0.395641    0.381592     0.007504
AU1553   AU        0.142990    0.359268    0.379964     0.007504
AU1554   AU        0.141793    0.396720    0.420397     0.007504
AU1555   AU        0.177118    0.356951    0.419397     0.007504
AU1556   AU        0.180198    0.393678    0.384151     0.007504
AU1557   AU        0.215783    0.357042    0.381734     0.007504
AU1558   AU        0.214189    0.391585    0.419823     0.007504
AU1559   AU        0.249121    0.358558    0.423858     0.007504
AU1560   AU        0.252539    0.393821    0.382262     0.007504
AU1561   AU        0.287777    0.358339    0.385057     0.007504
AU1562   AU        0.286586    0.394087    0.422616     0.007504
AU1563   AU        0.320990    0.357281    0.423441     0.007504
AU1564   AU        0.322345    0.394927    0.383721     0.007504
AU1565   AU        0.358483    0.360083    0.382573     0.007504
AU1566   AU        0.357491    0.393444    0.421107     0.007504
AU1567   AU        0.395796    0.358153    0.419437     0.007504
AU1568   AU        0.395858    0.395115    0.383251     0.007504
AU1569   AU        0.432315    0.359305    0.381836     0.007504
AU1570   AU        0.430745    0.394147    0.422555     0.007504
AU1571   AU        0.465029    0.357605    0.420260     0.007504
AU1572   AU        0.466772    0.395707    0.383805     0.007504
AU1573   AU        0.502287    0.356123    0.384829     0.007504
AU1574   AU        0.501910    0.391968    0.421318     0.007504
AU1575   AU        0.539928    0.357248    0.421904     0.007504
AU1576   AU        0.539131    0.392586    0.383861     0.007504
AU1577   AU        0.575077    0.358206    0.383926     0.007504
AU1578   AU        0.573651    0.392444    0.422383     0.007504
AU1579   AU        0.612891    0.356589    0.422432     0.007504
AU1580   AU        0.609882    0.392968    0.384171     0.007504
AU1581   AU        0.646387    0.358764    0.383718     0.007504
AU1582   AU        0.648422    0.394141    0.423514     0.007504
AU1583   AU        0.683270    0.358568    0.422989     0.007504
AU1584   AU        0.681723    0.394907    0.384103     0.007504
AU1585   AU        0.718844    0.356287    0.383123     0.007504
AU1586   AU        0.717518    0.395062    0.423736     0.007504
AU1587   AU        0.751173    0.355212    0.421933     0.007504
AU1588   AU        0.754923    0.392984    0.383181     0.007504
PD1589   PD        0.788203    0.355387    0.383422     0.005394
PD1590   PD        0.788035    0.389703    0.419765     0.005394
PD1591   PD        0.823619    0.356255    0.422423     0.005394
PD1592   PD        0.823133    0.391562    0.385356     0.005394
PD1593   PD        0.859757    0.390875    0.426381     0.005394
PD1594   PD        0.005336    0.429779    0.385293     0.005394
PD1595   PD        0.005633    0.463369    0.422336     0.005394
PD1596   PD        0.039972    0.429566    0.420940     0.005394
PD1597   PD        0.038244    0.464061    0.381111     0.005394
PD1598   PD        0.070484    0.430140    0.379544     0.005394
PD1599   PD        0.072342    0.467206    0.417268     0.005394
PD1600   PD        0.106813    0.431661    0.418618     0.005394
AU1601   AU        0.108777    0.465156    0.378233     0.007504
AU1602   AU        0.142692    0.428385    0.382513     0.007504
AU1603   AU        0.143487    0.467903    0.421042     0.007504
PD1604   PD        0.180799    0.431138    0.421000     0.005394
AU1605   AU        0.180617    0.463713    0.382371     0.007504
AU1606   AU        0.216335    0.431005    0.385634     0.007504
AU1607   AU        0.215077    0.467316    0.422936     0.007504
AU1608   AU        0.251613    0.431616    0.421041     0.007504
AU1609   AU        0.251764    0.465828    0.383182     0.007504
AU1610   AU        0.287774    0.431533    0.380232     0.007504
AU1611   AU        0.286122    0.464161    0.421411     0.007504
AU1612   AU        0.324072    0.429786    0.421125     0.007504
AU1613   AU        0.321868    0.466364    0.383826     0.007504
AU1614   AU        0.359069    0.430869    0.383127     0.007504
AU1615   AU        0.359648    0.466868    0.420691     0.007504
AU1616   AU        0.394276    0.431727    0.417620     0.007504
AU1617   AU        0.395911    0.468521    0.382870     0.007504
AU1618   AU        0.433877    0.430076    0.381351     0.007504
AU1619   AU        0.431204    0.464183    0.422887     0.007504
AU1620   AU        0.467463    0.429935    0.422837     0.007504
AU1621   AU        0.468798    0.465798    0.382701     0.007504
AU1622   AU        0.502718    0.430834    0.385055     0.007504
AU1623   AU        0.501192    0.468211    0.423587     0.007504
AU1624   AU        0.537410    0.430697    0.422915     0.007504
AU1625   AU        0.539539    0.465692    0.385785     0.007504
AU1626   AU        0.576559    0.430598    0.380342     0.007504
AU1627   AU        0.575591    0.463875    0.423027     0.007504
AU1628   AU        0.611171    0.428362    0.424726     0.007504
AU1629   AU        0.610532    0.466246    0.381851     0.007504
AU1630   AU        0.645495    0.427922    0.385817     0.007504
AU1631   AU        0.644661    0.465800    0.422316     0.007504
AU1632   AU        0.681565    0.431491    0.424148     0.007504
AU1633   AU        0.684266    0.464017    0.383670     0.007504
AU1634   AU        0.720277    0.428836    0.383018     0.007504
AU1635   AU        0.718973    0.464368    0.424878     0.007504
AU1636   AU        0.753614    0.427958    0.425593     0.007504
AU1637   AU        0.755246    0.465154    0.385361     0.007504
PD1638   PD        0.788919    0.427985    0.384950     0.005394
AU1639   AU        0.789583    0.463789    0.427906     0.007504
AU1640   AU        0.822113    0.426811    0.424141     0.007504
PD1641   PD        0.823878    0.462670    0.384402     0.005394
PD1642   PD        0.854628    0.426495    0.385276     0.005394
PD1643   PD        0.856810    0.462643    0.424625     0.005394
PD1644   PD        0.038312    0.501867    0.421567     0.005394
PD1645   PD        0.038648    0.538009    0.384114     0.005394
AU1646   AU        0.071839    0.502825    0.381817     0.007504
PD1647   PD        0.070902    0.537218    0.422827     0.005394
AU1648   AU        0.106874    0.503667    0.420914     0.007504
AU1649   AU        0.107576    0.537272    0.382300     0.007504
AU1650   AU        0.142448    0.501957    0.381398     0.007504
PD1651   PD        0.146627    0.535541    0.422339     0.005394
AU1652   AU        0.178360    0.501999    0.422316     0.007504
AU1653   AU        0.178879    0.538834    0.380425     0.007504
AU1654   AU        0.212969    0.503531    0.381886     0.007504
AU1655   AU        0.215055    0.536208    0.420177     0.007504
AU1656   AU        0.249957    0.502365    0.421354     0.007504
AU1657   AU        0.250159    0.538442    0.381737     0.007504
AU1658   AU        0.287511    0.501502    0.382175     0.007504
AU1659   AU        0.287648    0.537328    0.421279     0.007504
AU1660   AU        0.322820    0.500197    0.421153     0.007504
AU1661   AU        0.322724    0.538231    0.381769     0.007504
AU1662   AU        0.357263    0.503202    0.386643     0.007504
AU1663   AU        0.361522    0.538009    0.421261     0.007504
AU1664   AU        0.397199    0.502296    0.422177     0.007504
AU1665   AU        0.394561    0.538053    0.384511     0.007504
AU1666   AU        0.431634    0.501652    0.384501     0.007504
AU1667   AU        0.430021    0.537979    0.422524     0.007504
AU1668   AU        0.468659    0.502652    0.422227     0.007504
AU1669   AU        0.466807    0.538178    0.383672     0.007504
AU1670   AU        0.502952    0.501611    0.383292     0.007504
AU1671   AU        0.502117    0.539935    0.421991     0.007504
AU1672   AU        0.538192    0.500950    0.424535     0.007504
AU1673   AU        0.538429    0.538369    0.385608     0.007504
AU1674   AU        0.574421    0.503420    0.384933     0.007504
AU1675   AU        0.573583    0.536687    0.423638     0.007504
AU1676   AU        0.610553    0.500937    0.423485     0.007504
AU1677   AU        0.607839    0.539907    0.384495     0.007504
AU1678   AU        0.645218    0.501652    0.383323     0.007504
AU1679   AU        0.644601    0.535700    0.422361     0.007504
AU1680   AU        0.681071    0.501028    0.421281     0.007504
PD1681   PD        0.680475    0.537680    0.383561     0.005394
AU1682   AU        0.715829    0.500784    0.384145     0.007504
PD1683   PD        0.715830    0.538409    0.420973     0.005394
AU1684   AU        0.752637    0.499214    0.419764     0.007504
AU1685   AU        0.751722    0.539167    0.385863     0.007504
PD1686   PD        0.791457    0.498793    0.384440     0.005394
AU1687   AU        0.789320    0.538236    0.422704     0.007504
AU1688   AU        0.823484    0.500940    0.422904     0.007504
PD1689   PD        0.825933    0.538933    0.385278     0.005394
PD1690   PD        0.038081    0.572189    0.421788     0.005394
AU1691   AU        0.036562    0.606660    0.384887     0.007504
PD1692   PD        0.075824    0.572684    0.383083     0.005394
PD1693   PD        0.073475    0.607463    0.422350     0.005394
AU1694   AU        0.109319    0.573768    0.419209     0.007504
PD1695   PD        0.107286    0.612544    0.380832     0.005394
AU1696   AU        0.144687    0.573243    0.380879     0.007504
PD1697   PD        0.144376    0.607945    0.421121     0.005394
AU1698   AU        0.179469    0.572756    0.420819     0.007504
PD1699   PD        0.178541    0.607236    0.382193     0.005394
AU1700   AU        0.213987    0.573434    0.382949     0.007504
AU1701   AU        0.213040    0.610343    0.423567     0.007504
AU1702   AU        0.250793    0.573921    0.422510     0.007504
AU1703   AU        0.248709    0.611668    0.382606     0.007504
AU1704   AU        0.285378    0.577041    0.383523     0.007504
AU1705   AU        0.283155    0.610393    0.423280     0.007504
AU1706   AU        0.321669    0.572607    0.420360     0.007504
AU1707   AU        0.321568    0.612300    0.384227     0.007504
AU1708   AU        0.358529    0.575358    0.383077     0.007504
AU1709   AU        0.358648    0.613051    0.421652     0.007504
AU1710   AU        0.392844    0.576757    0.423683     0.007504
AU1711   AU        0.393892    0.611171    0.384010     0.007504
AU1712   AU        0.427536    0.573992    0.383269     0.007504
AU1713   AU        0.428570    0.611445    0.422056     0.007504
AU1714   AU        0.464680    0.574184    0.421459     0.007504
AU1715   AU        0.467364    0.611206    0.383073     0.007504
AU1716   AU        0.502139    0.573829    0.380224     0.007504
AU1717   AU        0.502536    0.610597    0.419239     0.007504
AU1718   AU        0.537445    0.576374    0.423901     0.007504
AU1719   AU        0.538447    0.610552    0.383360     0.007504
AU1720   AU        0.574363    0.575320    0.383579     0.007504
AU1721   AU        0.574963    0.611796    0.423282     0.007504
AU1722   AU        0.611441    0.575480    0.423324     0.007504
AU1723   AU        0.610363    0.612389    0.385924     0.007504
AU1724   AU        0.646265    0.574992    0.385766     0.007504
AU1725   AU        0.647715    0.609703    0.423769     0.007504
AU1726   AU        0.683019    0.570966    0.421608     0.007504
PD1727   PD        0.679752    0.610860    0.387773     0.005394
AU1728   AU        0.716375    0.573024    0.384194     0.007504
AU1729   AU        0.715346    0.608846    0.421064     0.007504
AU1730   AU        0.752955    0.575725    0.423704     0.007504
AU1731   AU        0.752655    0.609261    0.385578     0.007504
PD1732   PD        0.788909    0.571843    0.386485     0.005394
PD1733   PD        0.787648    0.610285    0.425924     0.005394
PD1734   PD        0.824425    0.575903    0.426051     0.005394
PD1735   PD        0.817076    0.608181    0.386218     0.005394
PD1736   PD        0.074293    0.644051    0.383844     0.005394
PD1737   PD        0.076047    0.677376    0.423521     0.005394
PD1738   PD        0.109142    0.643501    0.423260     0.005394
PD1739   PD        0.108630    0.680739    0.381583     0.005394
AU1740   AU        0.142237    0.646283    0.383271     0.007504
AU1741   AU        0.142522    0.681484    0.421284     0.007504
AU1742   AU        0.178334    0.642369    0.422413     0.007504
PD1743   PD        0.178693    0.683079    0.386803     0.005394
PD1744   PD        0.212370    0.645004    0.382642     0.005394
PD1745   PD        0.208862    0.679046    0.426321     0.005394
PD1746   PD        0.247265    0.646649    0.420877     0.005394
AU1747   AU        0.250217    0.682871    0.381891     0.007504
AU1748   AU        0.285802    0.647967    0.382631     0.007504
AU1749   AU        0.283882    0.682365    0.423348     0.007504
AU1750   AU        0.320519    0.648551    0.421768     0.007504
AU1751   AU        0.319534    0.682431    0.382416     0.007504
AU1752   AU        0.356533    0.648632    0.385050     0.007504
PD1753   PD        0.358524    0.681531    0.421719     0.005394
AU1754   AU        0.395959    0.647562    0.419494     0.007504
AU1755   AU        0.392094    0.682962    0.381466     0.007504
AU1756   AU        0.431549    0.647920    0.380696     0.007504
AU1757   AU        0.430654    0.682204    0.422604     0.007504
AU1758   AU        0.465042    0.646335    0.422978     0.007504
AU1759   AU        0.466919    0.682775    0.381311     0.007504
AU1760   AU        0.500507    0.647769    0.382436     0.007504
AU1761   AU        0.500777    0.682459    0.420884     0.007504
AU1762   AU        0.539055    0.648139    0.421086     0.007504
AU1763   AU        0.536950    0.684199    0.382242     0.007504
AU1764   AU        0.574463    0.646299    0.385931     0.007504
AU1765   AU        0.573910    0.682952    0.420602     0.007504
AU1766   AU        0.613278    0.648127    0.425958     0.007504
AU1767   AU        0.611833    0.682042    0.386857     0.007504
PD1768   PD        0.647370    0.648064    0.384852     0.005394
PD1769   PD        0.644489    0.683421    0.424914     0.005394
PD1770   PD        0.679605    0.646411    0.423184     0.005394
PD1771   PD        0.681241    0.682408    0.386599     0.005394
AU1772   AU        0.717849    0.645386    0.390111     0.007504
PD1773   PD        0.715216    0.680221    0.426329     0.005394
AU1774   AU        0.752663    0.644625    0.426304     0.007504
PD1775   PD        0.751330    0.681882    0.386625     0.005394
PD1776   PD        0.786106    0.645326    0.386126     0.005394
PD1777   PD        0.785004    0.681743    0.427486     0.005394
PD1778   PD        0.108071    0.713872    0.420287     0.005394
PD1779   PD        0.143531    0.718392    0.384705     0.005394
PD1780   PD        0.141081    0.752354    0.421800     0.005394
PD1781   PD        0.177960    0.718176    0.422748     0.005394
PD1782   PD        0.182537    0.750139    0.385973     0.005394
AU1783   AU        0.215330    0.716299    0.385861     0.007504
PD1784   PD        0.214677    0.750741    0.422431     0.005394
PD1785   PD        0.248742    0.717665    0.424566     0.005394
AU1786   AU        0.250277    0.751293    0.383188     0.007504
PD1787   PD        0.286475    0.716299    0.379016     0.005394
PD1788   PD        0.285193    0.752262    0.421994     0.005394
AU1789   AU        0.320356    0.715595    0.421606     0.007504
AU1790   AU        0.322353    0.753588    0.383207     0.007504
AU1791   AU        0.354889    0.715695    0.385337     0.007504
PD1792   PD        0.357001    0.752667    0.420092     0.005394
AU1793   AU        0.392662    0.716480    0.423071     0.007504
PD1794   PD        0.394011    0.752544    0.382365     0.005394
AU1795   AU        0.429472    0.720504    0.383975     0.007504
AU1796   AU        0.429383    0.751539    0.423326     0.007504
AU1797   AU        0.464934    0.715926    0.421713     0.007504
AU1798   AU        0.464078    0.753750    0.381165     0.007504
AU1799   AU        0.502055    0.720559    0.384829     0.007504
AU1800   AU        0.500443    0.754118    0.422259     0.007504
AU1801   AU        0.538081    0.721382    0.423778     0.007504
PD1802   PD        0.536857    0.752052    0.383723     0.005394
PD1803   PD        0.574688    0.719413    0.383695     0.005394
PD1804   PD        0.575690    0.755146    0.423511     0.005394
PD1805   PD        0.609402    0.721069    0.421637     0.005394
PD1806   PD        0.609126    0.753697    0.383280     0.005394
PD1807   PD        0.645373    0.717988    0.388793     0.005394
PD1808   PD        0.646693    0.754427    0.423117     0.005394
PD1809   PD        0.680045    0.717687    0.424128     0.005394
PD1810   PD        0.679608    0.752484    0.386194     0.005394
AU1811   AU        0.716427    0.714832    0.387119     0.007504
PD1812   PD        0.713566    0.750786    0.423425     0.005394
PD1813   PD        0.750053    0.714160    0.426834     0.005394
PD1814   PD        0.177848    0.784951    0.423558     0.005394
PD1815   PD        0.213072    0.786136    0.385670     0.005394
PD1816   PD        0.250458    0.785247    0.423358     0.005394
PD1817   PD        0.251107    0.821119    0.382280     0.005394
PD1818   PD        0.285956    0.784608    0.383660     0.005394
PD1819   PD        0.284885    0.820074    0.419502     0.005394
AU1820   AU        0.320492    0.788364    0.420431     0.007504
PD1821   PD        0.321205    0.822576    0.383188     0.005394
AU1822   AU        0.356816    0.787717    0.383241     0.007504
PD1823   PD        0.357797    0.821602    0.423753     0.005394
AU1824   AU        0.393456    0.785358    0.420735     0.007504
PD1825   PD        0.391671    0.820685    0.383292     0.005394
AU1826   AU        0.428938    0.788758    0.384852     0.007504
PD1827   PD        0.428921    0.822774    0.421499     0.005394
PD1828   PD        0.461730    0.784776    0.421830     0.005394
AU1829   AU        0.466742    0.819524    0.386366     0.007504
PD1830   PD        0.504217    0.786736    0.382523     0.005394
PD1831   PD        0.503003    0.819693    0.422538     0.005394
PD1832   PD        0.538022    0.787150    0.423050     0.005394
PD1833   PD        0.538044    0.820680    0.383571     0.005394
PD1834   PD        0.575253    0.786600    0.384870     0.005394
PD1835   PD        0.572181    0.820585    0.423521     0.005394
PD1836   PD        0.610784    0.785339    0.422529     0.005394
PD1837   PD        0.610220    0.818965    0.384782     0.005394
PD1838   PD        0.645753    0.787317    0.384848     0.005394
PD1839   PD        0.678659    0.785676    0.425264     0.005394
PD1840   PD        0.393606    0.856587    0.419628     0.005394
PD1841   PD        0.432697    0.854967    0.384329     0.005394
PD1842   PD        0.466856    0.854971    0.424006     0.005394
PD1843   PD        0.254533    0.036208    0.461526     0.005394
PD1844   PD        0.289524    0.039923    0.498128     0.005394
PD1845   PD        0.322062    0.036872    0.460508     0.005394
PD1846   PD        0.357347    0.000714    0.462635     0.005394
PD1847   PD        0.357607    0.038182    0.499772     0.005394
PD1848   PD        0.394140    0.005014    0.498180     0.005394
AU1849   AU        0.393091    0.036286    0.459423     0.007504
PD1850   PD        0.429947    0.002781    0.459177     0.005394
PD1851   PD        0.428553    0.037870    0.499146     0.005394
PD1852   PD        0.464116    0.005150    0.499565     0.005394
PD1853   PD        0.465618    0.037901    0.458764     0.005394
PD1854   PD        0.499945    0.003369    0.461686     0.005394
PD1855   PD        0.501026    0.037222    0.500431     0.005394
PD1856   PD        0.534835    0.038131    0.459433     0.005394
PD1857   PD        0.573651    0.039630    0.499551     0.005394
PD1858   PD        0.608195    0.037464    0.463023     0.005394
PD1859   PD        0.145042    0.109106    0.499025     0.005394
PD1860   PD        0.179366    0.074811    0.498221     0.005394
AU1861   AU        0.180403    0.107658    0.459449     0.007504
PD1862   PD        0.215343    0.074097    0.459753     0.005394
PD1863   PD        0.217091    0.108504    0.496347     0.005394
PD1864   PD        0.252508    0.073578    0.499426     0.005394
PD1865   PD        0.251326    0.108637    0.460224     0.005394
AU1866   AU        0.290736    0.073288    0.458396     0.007504
AU1867   AU        0.287770    0.108402    0.496298     0.007504
PD1868   PD        0.324021    0.074433    0.496274     0.005394
PD1869   PD        0.326903    0.109814    0.460384     0.005394
AU1870   AU        0.357104    0.069452    0.458450     0.007504
PD1871   PD        0.358736    0.108527    0.497695     0.005394
PD1872   PD        0.392911    0.071704    0.497015     0.005394
AU1873   AU        0.392984    0.106065    0.461581     0.007504
AU1874   AU        0.429349    0.071133    0.461608     0.007504
PD1875   PD        0.428874    0.103157    0.499591     0.005394
AU1876   AU        0.466713    0.071187    0.502008     0.007504
AU1877   AU        0.465447    0.107064    0.462312     0.007504
PD1878   PD        0.501688    0.071876    0.459312     0.005394
AU1879   AU        0.501580    0.107171    0.498776     0.007504
PD1880   PD        0.537352    0.071832    0.497255     0.005394
PD1881   PD        0.537939    0.106889    0.462186     0.005394
PD1882   PD        0.574086    0.072605    0.460161     0.005394
AU1883   AU        0.573600    0.106631    0.496942     0.007504
PD1884   PD        0.608782    0.073146    0.498393     0.005394
PD1885   PD        0.610737    0.108444    0.459546     0.005394
PD1886   PD        0.646132    0.075096    0.458434     0.005394
PD1887   PD        0.645352    0.107817    0.497815     0.005394
PD1888   PD        0.681269    0.071735    0.495122     0.005394
PD1889   PD        0.679944    0.111077    0.460763     0.005394
PD1890   PD        0.716587    0.109878    0.494575     0.005394
PD1891   PD        0.072032    0.179157    0.497624     0.005394
PD1892   PD        0.108190    0.140112    0.497429     0.005394
AU1893   AU        0.108581    0.176706    0.458484     0.007504
PD1894   PD        0.144795    0.141873    0.458475     0.005394
PD1895   PD        0.144753    0.175323    0.499268     0.005394
AU1896   AU        0.181609    0.142464    0.497767     0.007504
AU1897   AU        0.180450    0.178834    0.458340     0.007504
PD1898   PD        0.216463    0.142944    0.459561     0.005394
PD1899   PD        0.213869    0.178220    0.495528     0.005394
PD1900   PD        0.252683    0.143719    0.497443     0.005394
AU1901   AU        0.250406    0.178190    0.459720     0.007504
PD1902   PD        0.287092    0.144617    0.458801     0.005394
PD1903   PD        0.287814    0.177329    0.499017     0.005394
AU1904   AU        0.322721    0.143314    0.497513     0.007504
AU1905   AU        0.322179    0.179235    0.458958     0.007504
AU1906   AU        0.357700    0.144953    0.458641     0.007504
AU1907   AU        0.357140    0.176986    0.498890     0.007504
AU1908   AU        0.394287    0.142439    0.497717     0.007504
AU1909   AU        0.393644    0.177103    0.461630     0.007504
AU1910   AU        0.430421    0.142048    0.461514     0.007504
AU1911   AU        0.430614    0.177755    0.500408     0.007504
AU1912   AU        0.465721    0.142727    0.499632     0.007504
AU1913   AU        0.464170    0.178924    0.461525     0.007504
AU1914   AU        0.499494    0.141887    0.460460     0.007504
AU1915   AU        0.503219    0.178356    0.497113     0.007504
PD1916   PD        0.537849    0.142134    0.497074     0.005394
PD1917   PD        0.537243    0.178799    0.460246     0.005394
AU1918   AU        0.576373    0.143750    0.460641     0.007504
AU1919   AU        0.577036    0.178083    0.497551     0.007504
AU1920   AU        0.611051    0.142050    0.499012     0.007504
PD1921   PD        0.613514    0.178270    0.461588     0.005394
PD1922   PD        0.646061    0.142994    0.459838     0.005394
PD1923   PD        0.646612    0.177039    0.498746     0.005394
PD1924   PD        0.681871    0.144331    0.499752     0.005394
PD1925   PD        0.680522    0.177487    0.461348     0.005394
PD1926   PD        0.715150    0.143539    0.460139     0.005394
PD1927   PD        0.719603    0.179474    0.499234     0.005394
PD1928   PD        0.751049    0.142992    0.496547     0.005394
AU1929   AU        0.751880    0.178809    0.458619     0.007504
PD1930   PD        0.785491    0.178596    0.499587     0.005394
PD1931   PD        0.041922    0.247438    0.457327     0.005394
PD1932   PD        0.074955    0.213910    0.458465     0.005394
PD1933   PD        0.073259    0.249324    0.495632     0.005394
PD1934   PD        0.107141    0.211796    0.497627     0.005394
PD1935   PD        0.107671    0.247457    0.458100     0.005394
PD1936   PD        0.141790    0.214013    0.459481     0.005394
AU1937   AU        0.144696    0.248200    0.496910     0.007504
PD1938   PD        0.178446    0.212451    0.496588     0.005394
AU1939   AU        0.180323    0.249545    0.459393     0.007504
AU1940   AU        0.215271    0.214694    0.460307     0.007504
AU1941   AU        0.215212    0.247753    0.499413     0.007504
AU1942   AU        0.252576    0.211314    0.498510     0.007504
AU1943   AU        0.252852    0.250750    0.459251     0.007504
AU1944   AU        0.285837    0.211487    0.458687     0.007504
AU1945   AU        0.285733    0.250569    0.498812     0.007504
AU1946   AU        0.319779    0.214141    0.499530     0.007504
AU1947   AU        0.319550    0.246905    0.461482     0.007504
AU1948   AU        0.359142    0.212604    0.459595     0.007504
AU1949   AU        0.358780    0.249007    0.498968     0.007504
AU1950   AU        0.394931    0.213697    0.498367     0.007504
AU1951   AU        0.394060    0.247895    0.460609     0.007504
AU1952   AU        0.430801    0.215288    0.458696     0.007504
AU1953   AU        0.430799    0.248486    0.501012     0.007504
AU1954   AU        0.466243    0.212190    0.500827     0.007504
AU1955   AU        0.466035    0.248902    0.459654     0.007504
AU1956   AU        0.504229    0.213721    0.459624     0.007504
AU1957   AU        0.502540    0.248337    0.496826     0.007504
AU1958   AU        0.538092    0.210600    0.499364     0.007504
AU1959   AU        0.540573    0.246581    0.460156     0.007504
PD1960   PD        0.576274    0.211119    0.459989     0.005394
AU1961   AU        0.574683    0.247284    0.499234     0.007504
AU1962   AU        0.610803    0.212686    0.501242     0.007504
AU1963   AU        0.611091    0.247316    0.463118     0.007504
AU1964   AU        0.646676    0.214435    0.463098     0.007504
AU1965   AU        0.646968    0.248291    0.502133     0.007504
AU1966   AU        0.682028    0.213345    0.501266     0.007504
AU1967   AU        0.682518    0.250655    0.462067     0.007504
AU1968   AU        0.715601    0.212858    0.461528     0.007504
PD1969   PD        0.720056    0.250017    0.501185     0.005394
PD1970   PD        0.751465    0.212207    0.500600     0.005394
PD1971   PD        0.754312    0.246905    0.460821     0.005394
PD1972   PD        0.787841    0.212952    0.458662     0.005394
PD1973   PD        0.785596    0.246471    0.498870     0.005394
PD1974   PD        0.820866    0.249921    0.462287     0.005394
PD1975   PD        0.041156    0.283615    0.494754     0.005394
PD1976   PD        0.039500    0.320934    0.456291     0.005394
PD1977   PD        0.074770    0.285035    0.456716     0.005394
PD1978   PD        0.073619    0.318769    0.493584     0.005394
PD1979   PD        0.105316    0.285093    0.495851     0.005394
PD1980   PD        0.104483    0.322433    0.457695     0.005394
AU1981   AU        0.141451    0.283720    0.458022     0.007504
PD1982   PD        0.140827    0.318735    0.495469     0.005394
AU1983   AU        0.179892    0.284372    0.498229     0.007504
AU1984   AU        0.176204    0.320233    0.459443     0.007504
AU1985   AU        0.215168    0.285087    0.459566     0.007504
AU1986   AU        0.215733    0.321670    0.496421     0.007504
AU1987   AU        0.248930    0.284299    0.500215     0.007504
AU1988   AU        0.250689    0.321086    0.458871     0.007504
AU1989   AU        0.286156    0.287273    0.459639     0.007504
AU1990   AU        0.285280    0.320659    0.500936     0.007504
AU1991   AU        0.321797    0.285729    0.498867     0.007504
AU1992   AU        0.319904    0.324227    0.461289     0.007504
AU1993   AU        0.356396    0.285515    0.461377     0.007504
AU1994   AU        0.357835    0.321361    0.498415     0.007504
AU1995   AU        0.393195    0.284232    0.498204     0.007504
AU1996   AU        0.392920    0.320319    0.460575     0.007504
AU1997   AU        0.429173    0.284113    0.460571     0.007504
AU1998   AU        0.429956    0.322195    0.495825     0.007504
AU1999   AU        0.466829    0.284744    0.497134     0.007504
AU2000   AU        0.467516    0.320874    0.458130     0.007504
AU2001   AU        0.504066    0.284833    0.458673     0.007504
AU2002   AU        0.503423    0.318904    0.497107     0.007504
AU2003   AU        0.538951    0.283318    0.498279     0.007504
AU2004   AU        0.541726    0.319635    0.456951     0.007504
AU2005   AU        0.577264    0.283974    0.461102     0.007504
AU2006   AU        0.574217    0.318133    0.498840     0.007504
AU2007   AU        0.614962    0.284217    0.501314     0.007504
AU2008   AU        0.611745    0.320106    0.463408     0.007504
AU2009   AU        0.645869    0.283966    0.461765     0.007504
AU2010   AU        0.649178    0.320156    0.501841     0.007504
AU2011   AU        0.682979    0.285531    0.501278     0.007504
AU2012   AU        0.685529    0.320213    0.461429     0.007504
AU2013   AU        0.720339    0.284087    0.460826     0.007504
AU2014   AU        0.718681    0.318640    0.500265     0.007504
AU2015   AU        0.752376    0.285193    0.501855     0.007504
PD2016   PD        0.753408    0.321066    0.461997     0.005394
PD2017   PD        0.786600    0.283036    0.462340     0.005394
AU2018   AU        0.784615    0.320331    0.500865     0.007504
PD2019   PD        0.821304    0.282162    0.501366     0.005394
PD2020   PD        0.822034    0.318883    0.464481     0.005394
AU2021   AU        0.000714    0.358721    0.458344     0.007504
PD2022   PD        0.004683    0.395587    0.495060     0.005394
AU2023   AU        0.037094    0.356425    0.495129     0.007504
PD2024   PD        0.040118    0.396172    0.458017     0.005394
PD2025   PD        0.071848    0.357707    0.455677     0.005394
PD2026   PD        0.073191    0.393220    0.496052     0.005394
AU2027   AU        0.108586    0.355893    0.497155     0.007504
PD2028   PD        0.105220    0.392553    0.458379     0.005394
AU2029   AU        0.141972    0.356647    0.458700     0.007504
PD2030   PD        0.144388    0.392338    0.496893     0.005394
AU2031   AU        0.178238    0.356518    0.498659     0.007504
AU2032   AU        0.176683    0.392960    0.456934     0.007504
AU2033   AU        0.212486    0.355652    0.458274     0.007504
AU2034   AU        0.212826    0.394091    0.496748     0.007504
AU2035   AU        0.249088    0.356366    0.497819     0.007504
AU2036   AU        0.250998    0.394151    0.458346     0.007504
AU2037   AU        0.284268    0.355949    0.460983     0.007504
AU2038   AU        0.283815    0.391948    0.498093     0.007504
AU2039   AU        0.321627    0.359969    0.497114     0.007504
AU2040   AU        0.324961    0.395980    0.459113     0.007504
AU2041   AU        0.359032    0.358085    0.459737     0.007504
AU2042   AU        0.359489    0.395457    0.499925     0.007504
AU2043   AU        0.393428    0.358551    0.499339     0.007504
AU2044   AU        0.394765    0.394617    0.461557     0.007504
AU2045   AU        0.428368    0.356667    0.459641     0.007504
AU2046   AU        0.429433    0.392711    0.499577     0.007504
AU2047   AU        0.467208    0.354255    0.497625     0.007504
AU2048   AU        0.466337    0.392098    0.460230     0.007504
AU2049   AU        0.503748    0.354679    0.459181     0.007504
AU2050   AU        0.500095    0.391523    0.496478     0.007504
AU2051   AU        0.538194    0.355757    0.501746     0.007504
AU2052   AU        0.537987    0.391051    0.460969     0.007504
AU2053   AU        0.575938    0.359282    0.466309     0.007504
AU2054   AU        0.573666    0.393523    0.500803     0.007504
AU2055   AU        0.611227    0.356383    0.501330     0.007504
AU2056   AU        0.610548    0.393788    0.463275     0.007504
AU2057   AU        0.648122    0.356584    0.461823     0.007504
AU2058   AU        0.645912    0.390310    0.498230     0.007504
AU2059   AU        0.685176    0.357738    0.498807     0.007504
AU2060   AU        0.683441    0.394852    0.462778     0.007504
AU2061   AU        0.718695    0.356698    0.459929     0.007504
PD2062   PD        0.720122    0.393595    0.501623     0.005394
PD2063   PD        0.751922    0.355893    0.500749     0.005394
AU2064   AU        0.754106    0.393067    0.461967     0.007504
AU2065   AU        0.788475    0.355775    0.461234     0.007504
AU2066   AU        0.787651    0.392168    0.501725     0.007504
PD2067   PD        0.823526    0.354762    0.502887     0.005394
AU2068   AU        0.820620    0.393511    0.463027     0.007504
PD2069   PD        0.856407    0.359494    0.463673     0.005394
PD2070   PD        0.855006    0.392214    0.500482     0.005394
PD2071   PD        0.004934    0.429320    0.457698     0.005394
AU2072   AU        0.003785    0.464632    0.496180     0.007504
PD2073   PD        0.039723    0.430225    0.495963     0.005394
PD2074   PD        0.040449    0.464313    0.457782     0.005394
AU2075   AU        0.075671    0.431545    0.460098     0.007504
PD2076   PD        0.075810    0.464984    0.498644     0.005394
AU2077   AU        0.108956    0.426136    0.497344     0.007504
PD2078   PD        0.107464    0.469114    0.456797     0.005394
AU2079   AU        0.142036    0.429579    0.456233     0.007504
PD2080   PD        0.139946    0.464206    0.496291     0.005394
AU2081   AU        0.176019    0.428937    0.498173     0.007504
AU2082   AU        0.179682    0.463099    0.456665     0.007504
AU2083   AU        0.212978    0.428830    0.459051     0.007504
AU2084   AU        0.212143    0.466305    0.499339     0.007504
AU2085   AU        0.249767    0.429873    0.498515     0.007504
AU2086   AU        0.248458    0.467190    0.460451     0.007504
AU2087   AU        0.287758    0.430505    0.459800     0.007504
AU2088   AU        0.285792    0.465385    0.500781     0.007504
AU2089   AU        0.324757    0.428840    0.499465     0.007504
AU2090   AU        0.323125    0.465107    0.462767     0.007504
AU2091   AU        0.361568    0.431823    0.462002     0.007504
AU2092   AU        0.357363    0.464253    0.504073     0.007504
AU2093   AU        0.394493    0.430926    0.502217     0.007504
AU2094   AU        0.395097    0.467491    0.462719     0.007504
AU2095   AU        0.428558    0.431476    0.460724     0.007504
AU2096   AU        0.429781    0.466453    0.502221     0.007504
AU2097   AU        0.464242    0.426856    0.499382     0.007504
AU2098   AU        0.463557    0.465012    0.462083     0.007504
AU2099   AU        0.502509    0.430231    0.461086     0.007504
AU2100   AU        0.499874    0.465213    0.497822     0.007504
AU2101   AU        0.537999    0.428139    0.498049     0.007504
AU2102   AU        0.537790    0.466874    0.461238     0.007504
AU2103   AU        0.574025    0.427950    0.460486     0.007504
AU2104   AU        0.572149    0.464226    0.499660     0.007504
AU2105   AU        0.608571    0.427849    0.500825     0.007504
AU2106   AU        0.610025    0.465591    0.461738     0.007504
AU2107   AU        0.645440    0.427287    0.461111     0.007504
AU2108   AU        0.645607    0.461422    0.500209     0.007504
AU2109   AU        0.683536    0.428431    0.501864     0.007504
AU2110   AU        0.681794    0.464959    0.463267     0.007504
PD2111   PD        0.718317    0.431743    0.464889     0.005394
PD2112   PD        0.717751    0.467670    0.503184     0.005394
AU2113   AU        0.754705    0.430911    0.502395     0.007504
PD2114   PD        0.754738    0.465289    0.463970     0.005394
PD2115   PD        0.786818    0.428404    0.465367     0.005394
AU2116   AU        0.789845    0.464119    0.501881     0.007504
PD2117   PD        0.823125    0.426633    0.501036     0.005394
PD2118   PD        0.821940    0.462021    0.464694     0.005394
AU2119   AU        0.858685    0.428816    0.465225     0.007504
PD2120   PD        0.855692    0.465670    0.502284     0.005394
PD2121   PD        0.004849    0.501517    0.457331     0.005394
AU2122   AU        0.037590    0.502240    0.498407     0.007504
PD2123   PD        0.039241    0.536985    0.462421     0.005394
PD2124   PD        0.073547    0.500554    0.459504     0.005394
PD2125   PD        0.071794    0.536424    0.501823     0.005394
AU2126   AU        0.106632    0.502372    0.498243     0.007504
AU2127   AU        0.107233    0.535664    0.458832     0.007504
AU2128   AU        0.143089    0.501928    0.460430     0.007504
PD2129   PD        0.144022    0.536523    0.501535     0.005394
AU2130   AU        0.176138    0.498725    0.498969     0.007504
AU2131   AU        0.178588    0.536333    0.460907     0.007504
AU2132   AU        0.216469    0.503302    0.460454     0.007504
AU2133   AU        0.213931    0.537631    0.499876     0.007504
AU2134   AU        0.251576    0.502090    0.497919     0.007504
AU2135   AU        0.253169    0.539105    0.459992     0.007504
AU2136   AU        0.286411    0.500395    0.457973     0.007504
AU2137   AU        0.284333    0.535663    0.499071     0.007504
AU2138   AU        0.322424    0.500562    0.500015     0.007504
AU2139   AU        0.322500    0.536649    0.463809     0.007504
AU2140   AU        0.359734    0.503971    0.460447     0.007504
AU2141   AU        0.359491    0.537791    0.500033     0.007504
AU2142   AU        0.394633    0.502572    0.500630     0.007504
AU2143   AU        0.394682    0.538756    0.461151     0.007504
AU2144   AU        0.432497    0.502787    0.461203     0.007504
AU2145   AU        0.433893    0.537519    0.500842     0.007504
AU2146   AU        0.464753    0.502632    0.501445     0.007504
AU2147   AU        0.465568    0.540226    0.461643     0.007504
AU2148   AU        0.502473    0.503055    0.462721     0.007504
AU2149   AU        0.501127    0.538612    0.501494     0.007504
AU2150   AU        0.538174    0.502285    0.500448     0.007504
AU2151   AU        0.538603    0.539530    0.459711     0.007504
AU2152   AU        0.573824    0.501628    0.461345     0.007504
AU2153   AU        0.573661    0.539436    0.500609     0.007504
AU2154   AU        0.610426    0.500058    0.500728     0.007504
AU2155   AU        0.609633    0.535199    0.462838     0.007504
AU2156   AU        0.646114    0.499829    0.460375     0.007504
AU2157   AU        0.646390    0.536114    0.498638     0.007504
AU2158   AU        0.680901    0.501465    0.501675     0.007504
AU2159   AU        0.681241    0.538558    0.463376     0.007504
AU2160   AU        0.715582    0.500865    0.462810     0.007504
PD2161   PD        0.718680    0.540049    0.498603     0.005394
PD2162   PD        0.754749    0.505737    0.498080     0.005394
AU2163   AU        0.752287    0.540715    0.458749     0.007504
AU2164   AU        0.788659    0.501929    0.460866     0.007504
PD2165   PD        0.788813    0.539432    0.499786     0.005394
PD2166   PD        0.819224    0.500915    0.499698     0.005394
PD2167   PD        0.825150    0.539139    0.463892     0.005394
PD2168   PD        0.855351    0.499881    0.462964     0.005394
PD2169   PD        0.039416    0.572586    0.498785     0.005394
PD2170   PD        0.038901    0.607268    0.458499     0.005394
PD2171   PD        0.072653    0.570904    0.459544     0.005394
PD2172   PD        0.071170    0.608688    0.498610     0.005394
AU2173   AU        0.106036    0.572827    0.498476     0.007504
PD2174   PD        0.108960    0.607393    0.461380     0.005394
AU2175   AU        0.143379    0.570325    0.459237     0.007504
AU2176   AU        0.141276    0.605314    0.499763     0.007504
AU2177   AU        0.178829    0.570482    0.500816     0.007504
PD2178   PD        0.176561    0.605622    0.461175     0.005394
PD2179   PD        0.214332    0.571585    0.461525     0.005394
AU2180   AU        0.213655    0.607327    0.501801     0.007504
AU2181   AU        0.249043    0.572148    0.498470     0.007504
AU2182   AU        0.247631    0.610394    0.461568     0.007504
AU2183   AU        0.287276    0.574436    0.462014     0.007504
AU2184   AU        0.286989    0.610871    0.499550     0.007504
AU2185   AU        0.320066    0.573830    0.499632     0.007504
AU2186   AU        0.322770    0.610871    0.459049     0.007504
AU2187   AU        0.355496    0.572492    0.463536     0.007504
AU2188   AU        0.356925    0.608160    0.499565     0.007504
AU2189   AU        0.393945    0.575769    0.497306     0.007504
AU2190   AU        0.391343    0.613094    0.461943     0.007504
AU2191   AU        0.427068    0.576444    0.461561     0.007504
AU2192   AU        0.432399    0.610047    0.501705     0.007504
AU2193   AU        0.464356    0.574661    0.503066     0.007504
AU2194   AU        0.465325    0.609474    0.460992     0.007504
AU2195   AU        0.503290    0.576003    0.460902     0.007504
AU2196   AU        0.500967    0.609426    0.500036     0.007504
AU2197   AU        0.536236    0.575379    0.501617     0.007504
AU2198   AU        0.536644    0.611061    0.458917     0.007504
AU2199   AU        0.575696    0.576484    0.459953     0.007504
AU2200   AU        0.573961    0.611060    0.499567     0.007504
AU2201   AU        0.609247    0.575183    0.500198     0.007504
AU2202   AU        0.613350    0.613166    0.463571     0.007504
AU2203   AU        0.646519    0.574667    0.460606     0.007504
AU2204   AU        0.647474    0.612234    0.501016     0.007504
PD2205   PD        0.682724    0.574783    0.503825     0.005394
AU2206   AU        0.682824    0.609737    0.463743     0.007504
PD2207   PD        0.715576    0.574980    0.461483     0.005394
PD2208   PD        0.717957    0.612177    0.501121     0.005394
AU2209   AU        0.754556    0.574784    0.498619     0.007504
PD2210   PD        0.750457    0.611022    0.460698     0.005394
AU2211   AU        0.789403    0.575633    0.461515     0.007504
AU2212   AU        0.787766    0.609758    0.503993     0.007504
PD2213   PD        0.822114    0.574211    0.505580     0.005394
PD2214   PD        0.823193    0.610128    0.468221     0.005394
PD2215   PD        0.076845    0.643581    0.461678     0.005394
PD2216   PD        0.075908    0.675046    0.499827     0.005394
PD2217   PD        0.108947    0.639336    0.503172     0.005394
PD2218   PD        0.108140    0.678911    0.461800     0.005394
PD2219   PD        0.141628    0.642337    0.461629     0.005394
PD2220   PD        0.140950    0.675285    0.502714     0.005394
AU2221   AU        0.180030    0.641866    0.501566     0.007504
PD2222   PD        0.177247    0.679360    0.462585     0.005394
AU2223   AU        0.213255    0.642807    0.464468     0.007504
PD2224   PD        0.213304    0.679173    0.499899     0.005394
AU2225   AU        0.249892    0.646420    0.501378     0.007504
AU2226   AU        0.248206    0.683263    0.460239     0.007504
AU2227   AU        0.283176    0.645459    0.459669     0.007504
AU2228   AU        0.284266    0.686019    0.498771     0.007504
AU2229   AU        0.321163    0.645077    0.498616     0.007504
PD2230   PD        0.319133    0.683482    0.460225     0.005394
AU2231   AU        0.357815    0.647426    0.460250     0.007504
AU2232   AU        0.356243    0.680475    0.501552     0.007504
AU2233   AU        0.391769    0.646244    0.499664     0.007504
AU2234   AU        0.393465    0.681984    0.460210     0.007504
AU2235   AU        0.428131    0.646327    0.461432     0.007504
AU2236   AU        0.430676    0.682275    0.502023     0.007504
AU2237   AU        0.465584    0.647334    0.497538     0.007504
AU2238   AU        0.465557    0.684396    0.460556     0.007504
AU2239   AU        0.501242    0.646991    0.459962     0.007504
AU2240   AU        0.500994    0.681484    0.499389     0.007504
AU2241   AU        0.539684    0.646800    0.498983     0.007504
PD2242   PD        0.538006    0.680871    0.460143     0.005394
AU2243   AU        0.575792    0.647216    0.458907     0.007504
AU2244   AU        0.573111    0.684302    0.499316     0.007504
AU2245   AU        0.610039    0.647400    0.500673     0.007504
AU2246   AU        0.609261    0.684144    0.460324     0.007504
AU2247   AU        0.647661    0.646544    0.463801     0.007504
AU2248   AU        0.645271    0.679874    0.500688     0.007504
PD2249   PD        0.680884    0.646585    0.503807     0.005394
AU2250   AU        0.680757    0.682885    0.462735     0.007504
PD2251   PD        0.716252    0.644163    0.464461     0.005394
AU2252   AU        0.714847    0.680745    0.500999     0.007504
PD2253   PD        0.752660    0.645946    0.502891     0.005394
PD2254   PD        0.749647    0.679643    0.463070     0.005394
PD2255   PD        0.787683    0.643870    0.465251     0.005394
AU2256   AU        0.786788    0.683840    0.500855     0.007504
PD2257   PD        0.106532    0.712375    0.502667     0.005394
AU2258   AU        0.144251    0.713695    0.462265     0.007504
PD2259   PD        0.140803    0.748235    0.502325     0.005394
AU2260   AU        0.176041    0.713145    0.503705     0.007504
AU2261   AU        0.174739    0.752230    0.460947     0.007504
AU2262   AU        0.210725    0.718656    0.461815     0.007504
PD2263   PD        0.209743    0.750634    0.498988     0.005394
AU2264   AU        0.247432    0.717782    0.499902     0.007504
PD2265   PD        0.248548    0.752090    0.461472     0.005394
AU2266   AU        0.285633    0.719875    0.459546     0.007504
PD2267   PD        0.285640    0.752785    0.499100     0.005394
AU2268   AU        0.321795    0.716386    0.497571     0.007504
AU2269   AU        0.321729    0.753311    0.459665     0.007504
AU2270   AU        0.357961    0.715394    0.460799     0.007504
PD2271   PD        0.354440    0.751657    0.500630     0.005394
PD2272   PD        0.388856    0.714983    0.501412     0.005394
AU2273   AU        0.393828    0.751758    0.463519     0.007504
PD2274   PD        0.428868    0.718157    0.462987     0.005394
PD2275   PD        0.428900    0.752749    0.499974     0.005394
AU2276   AU        0.467141    0.718097    0.501068     0.007504
AU2277   AU        0.462680    0.752165    0.461773     0.007504
AU2278   AU        0.502977    0.718728    0.460029     0.007504
PD2279   PD        0.500551    0.752688    0.501236     0.005394
AU2280   AU        0.535744    0.717040    0.499847     0.007504
AU2281   AU        0.535687    0.752151    0.462382     0.007504
AU2282   AU        0.574317    0.719025    0.460508     0.007504
AU2283   AU        0.571491    0.750785    0.503756     0.007504
AU2284   AU        0.610828    0.716579    0.500076     0.007504
PD2285   PD        0.610237    0.753070    0.462279     0.005394
PD2286   PD        0.644787    0.718470    0.461474     0.005394
PD2287   PD        0.643105    0.751506    0.501118     0.005394
AU2288   AU        0.677322    0.718813    0.498503     0.007504
PD2289   PD        0.678869    0.752746    0.463318     0.005394
PD2290   PD        0.714147    0.717663    0.462098     0.005394
PD2291   PD        0.715161    0.753043    0.499269     0.005394
PD2292   PD        0.747674    0.716895    0.500614     0.005394
AU2293   AU        0.175998    0.788177    0.501806     0.007504
PD2294   PD        0.214528    0.785538    0.462435     0.005394
AU2295   AU        0.246190    0.787577    0.500383     0.007504
PD2296   PD        0.252641    0.818475    0.459958     0.005394
PD2297   PD        0.284569    0.785661    0.460470     0.005394
PD2298   PD        0.283618    0.820429    0.501107     0.005394
AU2299   AU        0.321970    0.787698    0.499774     0.007504
PD2300   PD        0.320223    0.819389    0.459786     0.005394
AU2301   AU        0.358779    0.785576    0.461413     0.007504
PD2302   PD        0.358668    0.821298    0.497544     0.005394
PD2303   PD        0.393910    0.787022    0.500684     0.005394
PD2304   PD        0.394772    0.822072    0.457744     0.005394
PD2305   PD        0.427763    0.788752    0.460796     0.005394
PD2306   PD        0.432168    0.822098    0.497509     0.005394
AU2307   AU        0.465067    0.785657    0.500881     0.007504
PD2308   PD        0.464531    0.821071    0.460037     0.005394
AU2309   AU        0.499821    0.786176    0.462524     0.007504
PD2310   PD        0.498889    0.819384    0.501102     0.005394
AU2311   AU        0.538600    0.785472    0.500282     0.007504
PD2312   PD        0.537176    0.820792    0.464913     0.005394
PD2313   PD        0.573940    0.787081    0.462899     0.005394
PD2314   PD        0.573959    0.822272    0.499591     0.005394
PD2315   PD        0.608617    0.784867    0.500519     0.005394
PD2316   PD        0.608522    0.819432    0.462731     0.005394
PD2317   PD        0.643590    0.786668    0.464158     0.005394
PD2318   PD        0.680234    0.784614    0.503505     0.005394
PD2319   PD        0.355985    0.854072    0.458402     0.005394
PD2320   PD        0.395308    0.852292    0.498837     0.005394
PD2321   PD        0.428586    0.858571    0.457831     0.005394
PD2322   PD        0.467428    0.855165    0.497436     0.005394
PD2323   PD        0.502830    0.855008    0.459484     0.005394
PD2324   PD        0.254531    0.037276    0.534870     0.005394
AU2325   AU        0.287169    0.036700    0.576820     0.007504
PD2326   PD        0.320192    0.040688    0.536522     0.005394
PD2327   PD        0.358612    0.036856    0.573855     0.005394
PD2328   PD        0.394188    0.038712    0.537639     0.005394
PD2329   PD        0.427944    0.002202    0.535056     0.005394
PD2330   PD        0.429337    0.037193    0.575645     0.005394
PD2331   PD        0.465156    0.037600    0.540983     0.005394
PD2332   PD        0.500205    0.040401    0.575621     0.005394
PD2333   PD        0.538549    0.040412    0.536085     0.005394
PD2334   PD        0.572906    0.038358    0.574059     0.005394
PD2335   PD        0.608768    0.039986    0.536372     0.005394
PD2336   PD        0.182868    0.108868    0.538539     0.005394
PD2337   PD        0.216444    0.073851    0.535030     0.005394
PD2338   PD        0.217862    0.107622    0.576832     0.005394
PD2339   PD        0.250468    0.071263    0.572736     0.005394
PD2340   PD        0.250498    0.108518    0.535263     0.005394
PD2341   PD        0.287235    0.073986    0.538050     0.005394
AU2342   AU        0.285276    0.108288    0.576085     0.007504
PD2343   PD        0.320656    0.073420    0.576350     0.005394
AU2344   AU        0.322319    0.108537    0.537919     0.007504
AU2345   AU        0.358433    0.072295    0.538132     0.007504
PD2346   PD        0.359332    0.108444    0.576289     0.005394
PD2347   PD        0.394285    0.070579    0.575536     0.005394
PD2348   PD        0.393141    0.105202    0.535670     0.005394
PD2349   PD        0.428750    0.071500    0.537381     0.005394
AU2350   AU        0.428809    0.103792    0.574482     0.007504
PD2351   PD        0.465579    0.073095    0.577654     0.005394
PD2352   PD        0.466291    0.104810    0.536498     0.005394
AU2353   AU        0.501417    0.072837    0.537775     0.007504
AU2354   AU        0.501043    0.110111    0.576319     0.007504
PD2355   PD        0.538582    0.074340    0.575027     0.005394
AU2356   AU        0.539671    0.106378    0.534521     0.007504
PD2357   PD        0.573738    0.075372    0.536043     0.005394
PD2358   PD        0.573857    0.106653    0.577758     0.005394
PD2359   PD        0.609132    0.073247    0.577767     0.005394
PD2360   PD        0.611797    0.104640    0.539498     0.005394
PD2361   PD        0.645554    0.072477    0.535476     0.005394
AU2362   AU        0.647958    0.104452    0.576731     0.007504
PD2363   PD        0.683571    0.105659    0.533833     0.005394
AU2364   AU        0.108445    0.176285    0.535738     0.007504
PD2365   PD        0.145894    0.142995    0.535274     0.005394
PD2366   PD        0.145303    0.177985    0.575321     0.005394
PD2367   PD        0.180218    0.144411    0.575358     0.005394
PD2368   PD        0.176507    0.180608    0.538076     0.005394
AU2369   AU        0.217658    0.143178    0.538226     0.007504
AU2370   AU        0.214953    0.180964    0.575442     0.007504
PD2371   PD        0.249959    0.143183    0.578317     0.005394
AU2372   AU        0.250302    0.177109    0.537596     0.007504
AU2373   AU        0.284740    0.142455    0.537448     0.007504
AU2374   AU        0.284425    0.177735    0.577302     0.007504
PD2375   PD        0.321883    0.143222    0.578235     0.005394
AU2376   AU        0.322535    0.179856    0.535818     0.007504
AU2377   AU        0.357239    0.142678    0.537587     0.007504
AU2378   AU        0.357696    0.178593    0.575835     0.007504
AU2379   AU        0.393267    0.144295    0.574891     0.007504
AU2380   AU        0.393435    0.179033    0.536114     0.007504
AU2381   AU        0.430684    0.140291    0.536497     0.007504
AU2382   AU        0.429295    0.177154    0.573323     0.007504
AU2383   AU        0.463925    0.140540    0.576805     0.007504
AU2384   AU        0.466135    0.176080    0.537092     0.007504
AU2385   AU        0.502436    0.142287    0.536309     0.007504
AU2386   AU        0.504597    0.176694    0.576457     0.007504
PD2387   PD        0.540463    0.141671    0.579470     0.005394
AU2388   AU        0.542170    0.175570    0.535389     0.007504
AU2389   AU        0.576221    0.140043    0.538571     0.007504
AU2390   AU        0.577141    0.176893    0.574403     0.007504
PD2391   PD        0.611518    0.139992    0.576519     0.005394
AU2392   AU        0.612274    0.177764    0.536354     0.007504
AU2393   AU        0.647304    0.142218    0.535784     0.007504
AU2394   AU        0.647377    0.175695    0.578064     0.007504
PD2395   PD        0.682148    0.140304    0.577808     0.005394
AU2396   AU        0.681641    0.176775    0.537730     0.007504
PD2397   PD        0.716128    0.140603    0.536862     0.005394
PD2398   PD        0.717341    0.176939    0.575577     0.005394
AU2399   AU        0.753683    0.174639    0.539609     0.007504
PD2400   PD        0.042482    0.251327    0.536407     0.005394
PD2401   PD        0.074496    0.214579    0.535574     0.005394
PD2402   PD        0.077095    0.250097    0.574087     0.005394
PD2403   PD        0.108935    0.212998    0.576657     0.005394
PD2404   PD        0.106863    0.248548    0.536064     0.005394
AU2405   AU        0.142348    0.214254    0.536432     0.007504
PD2406   PD        0.142556    0.249124    0.574792     0.005394
PD2407   PD        0.178560    0.213665    0.576056     0.005394
AU2408   AU        0.179159    0.248434    0.537457     0.007504
AU2409   AU        0.214158    0.212101    0.535709     0.007504
AU2410   AU        0.216448    0.249028    0.576109     0.007504
PD2411   PD        0.251350    0.212743    0.574766     0.005394
AU2412   AU        0.251428    0.248115    0.539381     0.007504
PD2413   PD        0.286249    0.211780    0.538645     0.005394
AU2414   AU        0.287056    0.251366    0.574955     0.007504
AU2415   AU        0.319056    0.213956    0.577005     0.007504
AU2416   AU        0.323989    0.249715    0.537095     0.007504
AU2417   AU        0.358262    0.212793    0.536794     0.007504
AU2418   AU        0.356087    0.247396    0.576292     0.007504
AU2419   AU        0.393596    0.213359    0.576288     0.007504
AU2420   AU        0.392811    0.250849    0.539094     0.007504
PD2421   PD        0.431159    0.214527    0.539719     0.005394
AU2422   AU        0.433554    0.249950    0.577598     0.007504
AU2423   AU        0.466796    0.211772    0.577051     0.007504
AU2424   AU        0.465369    0.251113    0.538687     0.007504
AU2425   AU        0.500462    0.211263    0.536839     0.007504
AU2426   AU        0.502247    0.247641    0.576843     0.007504
PD2427   PD        0.538756    0.212939    0.577431     0.005394
AU2428   AU        0.537646    0.246275    0.536737     0.007504
PD2429   PD        0.571166    0.211718    0.534743     0.005394
AU2430   AU        0.575504    0.245947    0.579117     0.007504
AU2431   AU        0.610399    0.212823    0.578210     0.007504
AU2432   AU        0.610529    0.248083    0.540784     0.007504
AU2433   AU        0.646229    0.211302    0.540406     0.007504
PD2434   PD        0.645473    0.246857    0.579385     0.005394
AU2435   AU        0.682222    0.211999    0.578815     0.007504
AU2436   AU        0.683031    0.248025    0.541855     0.007504
AU2437   AU        0.716828    0.212215    0.539445     0.007504
PD2438   PD        0.717494    0.246756    0.578868     0.005394
PD2439   PD        0.754443    0.213196    0.578971     0.005394
PD2440   PD        0.750118    0.247405    0.541867     0.005394
PD2441   PD        0.785563    0.212378    0.539793     0.005394
PD2442   PD        0.786215    0.249651    0.579190     0.005394
PD2443   PD        0.822526    0.244214    0.539694     0.005394
PD2444   PD        0.042743    0.285240    0.572778     0.005394
PD2445   PD        0.038900    0.319892    0.533562     0.005394
PD2446   PD        0.074346    0.286762    0.533902     0.005394
PD2447   PD        0.073268    0.324638    0.574634     0.005394
PD2448   PD        0.107215    0.288217    0.574365     0.005394
PD2449   PD        0.107203    0.323779    0.536469     0.005394
AU2450   AU        0.142122    0.285508    0.534106     0.007504
AU2451   AU        0.146302    0.321125    0.574557     0.007504
AU2452   AU        0.177338    0.283298    0.575200     0.007504
AU2453   AU        0.181749    0.321597    0.539720     0.007504
AU2454   AU        0.213203    0.284604    0.538313     0.007504
AU2455   AU        0.211599    0.319505    0.578958     0.007504
AU2456   AU        0.252017    0.283272    0.575603     0.007504
AU2457   AU        0.249097    0.321747    0.536655     0.007504
AU2458   AU        0.286092    0.284439    0.537064     0.007504
AU2459   AU        0.285676    0.319836    0.576529     0.007504
AU2460   AU        0.320768    0.285013    0.578788     0.007504
AU2461   AU        0.321042    0.322637    0.538413     0.007504
AU2462   AU        0.357471    0.286435    0.542830     0.007504
AU2463   AU        0.356242    0.323957    0.575205     0.007504
AU2464   AU        0.396332    0.284510    0.577591     0.007504
AU2465   AU        0.395122    0.319958    0.537858     0.007504
AU2466   AU        0.430138    0.286148    0.536469     0.007504
AU2467   AU        0.429758    0.320218    0.576337     0.007504
AU2468   AU        0.470083    0.285177    0.577659     0.007504
AU2469   AU        0.466110    0.321091    0.537412     0.007504
AU2470   AU        0.503005    0.283735    0.537026     0.007504
AU2471   AU        0.502114    0.320304    0.577945     0.007504
AU2472   AU        0.537386    0.284006    0.575986     0.007504
AU2473   AU        0.539557    0.320110    0.537368     0.007504
AU2474   AU        0.575652    0.284054    0.540133     0.007504
AU2475   AU        0.572388    0.320694    0.577450     0.007504
AU2476   AU        0.607245    0.284691    0.577310     0.007504
AU2477   AU        0.609631    0.321954    0.539033     0.007504
AU2478   AU        0.644847    0.284841    0.540989     0.007504
AU2479   AU        0.645561    0.318574    0.577387     0.007504
PD2480   PD        0.683639    0.284415    0.580488     0.005394
AU2481   AU        0.681030    0.319422    0.541801     0.007504
PD2482   PD        0.718054    0.284240    0.540977     0.005394
PD2483   PD        0.718387    0.320102    0.578656     0.005394
AU2484   AU        0.753273    0.283805    0.578986     0.007504
PD2485   PD        0.751659    0.319285    0.540030     0.005394
AU2486   AU        0.787507    0.281904    0.539574     0.007504
PD2487   PD        0.786867    0.320126    0.577417     0.005394
AU2488   AU        0.824167    0.282818    0.575834     0.007504
PD2489   PD        0.824732    0.320100    0.538662     0.005394
PD2490   PD        0.035570    0.355533    0.572188     0.005394
AU2491   AU        0.038436    0.392584    0.534019     0.007504
AU2492   AU        0.071923    0.356032    0.533400     0.007504
AU2493   AU        0.070911    0.393102    0.576655     0.007504
PD2494   PD        0.107451    0.358245    0.574741     0.005394
PD2495   PD        0.107906    0.391247    0.537455     0.005394
AU2496   AU        0.142160    0.357508    0.535686     0.007504
PD2497   PD        0.141890    0.393327    0.574468     0.005394
AU2498   AU        0.177601    0.356995    0.575750     0.007504
AU2499   AU        0.179996    0.394674    0.535532     0.007504
AU2500   AU        0.213666    0.356683    0.539241     0.007504
AU2501   AU        0.211303    0.392300    0.577280     0.007504
AU2502   AU        0.250358    0.356639    0.572844     0.007504
AU2503   AU        0.247010    0.392155    0.533749     0.007504
AU2504   AU        0.284751    0.356261    0.537040     0.007504
AU2505   AU        0.286775    0.391938    0.575133     0.007504
AU2506   AU        0.320738    0.356628    0.576575     0.007504
AU2507   AU        0.320170    0.394476    0.535857     0.007504
AU2508   AU        0.357792    0.356132    0.535284     0.007504
AU2509   AU        0.356898    0.394050    0.577232     0.007504
AU2510   AU        0.391742    0.357444    0.577516     0.007504
AU2511   AU        0.392366    0.394704    0.539909     0.007504
AU2512   AU        0.430265    0.355780    0.535589     0.007504
AU2513   AU        0.429220    0.390513    0.577131     0.007504
AU2514   AU        0.463063    0.355016    0.578095     0.007504
AU2515   AU        0.464354    0.391998    0.538020     0.007504
AU2516   AU        0.502045    0.354973    0.538202     0.007504
AU2517   AU        0.500235    0.390150    0.572817     0.007504
AU2518   AU        0.537916    0.357728    0.575822     0.007504
AU2519   AU        0.538496    0.392326    0.538217     0.007504
AU2520   AU        0.574045    0.357845    0.539933     0.007504
AU2521   AU        0.571269    0.394561    0.579340     0.007504
AU2522   AU        0.608635    0.356190    0.578149     0.007504
AU2523   AU        0.608510    0.395108    0.542901     0.007504
AU2524   AU        0.647203    0.356339    0.541256     0.007504
PD2525   PD        0.644915    0.392036    0.578759     0.005394
PD2526   PD        0.680327    0.356518    0.580606     0.005394
AU2527   AU        0.683730    0.391460    0.535579     0.007504
PD2528   PD        0.716257    0.356673    0.538602     0.005394
AU2529   AU        0.718635    0.394497    0.575225     0.007504
PD2530   PD        0.751678    0.355703    0.578759     0.005394
PD2531   PD        0.753626    0.390767    0.538570     0.005394
PD2532   PD        0.788296    0.352767    0.538932     0.005394
AU2533   AU        0.788745    0.391390    0.577999     0.007504
PD2534   PD        0.823252    0.352625    0.575764     0.005394
PD2535   PD        0.823225    0.391594    0.540528     0.005394
AU2536   AU        0.003325    0.429308    0.534904     0.007504
PD2537   PD        0.040188    0.430471    0.575475     0.005394
PD2538   PD        0.037955    0.464966    0.535928     0.005394
PD2539   PD        0.072640    0.429806    0.536932     0.005394
AU2540   AU        0.073398    0.466766    0.577496     0.007504
PD2541   PD        0.105816    0.427693    0.574240     0.005394
AU2542   AU        0.109688    0.462817    0.536517     0.007504
PD2543   PD        0.140712    0.426933    0.537833     0.005394
AU2544   AU        0.144467    0.462702    0.574942     0.007504
AU2545   AU        0.180323    0.429265    0.575696     0.007504
AU2546   AU        0.177819    0.464477    0.536584     0.007504
AU2547   AU        0.214188    0.428621    0.537478     0.007504
AU2548   AU        0.214845    0.463477    0.576425     0.007504
AU2549   AU        0.250548    0.424589    0.574175     0.007504
AU2550   AU        0.246931    0.465847    0.535494     0.007504
AU2551   AU        0.285214    0.431157    0.535183     0.007504
AU2552   AU        0.286867    0.463064    0.575789     0.007504
AU2553   AU        0.320049    0.428447    0.575255     0.007504
AU2554   AU        0.320970    0.465089    0.537605     0.007504
AU2555   AU        0.357399    0.429505    0.540094     0.007504
AU2556   AU        0.357842    0.465605    0.578020     0.007504
AU2557   AU        0.394300    0.427832    0.577044     0.007504
AU2558   AU        0.394637    0.467758    0.541191     0.007504
AU2559   AU        0.430687    0.426748    0.540747     0.007504
AU2560   AU        0.432410    0.464925    0.577426     0.007504
AU2561   AU        0.468292    0.428408    0.576173     0.007504
AU2562   AU        0.466174    0.462659    0.539433     0.007504
AU2563   AU        0.502558    0.428609    0.534191     0.007504
AU2564   AU        0.502560    0.463837    0.576315     0.007504
AU2565   AU        0.535302    0.427449    0.576976     0.007504
AU2566   AU        0.536524    0.467814    0.538832     0.007504
AU2567   AU        0.572018    0.429974    0.539994     0.007504
AU2568   AU        0.572883    0.465215    0.578305     0.007504
AU2569   AU        0.608973    0.429542    0.580403     0.007504
AU2570   AU        0.608299    0.464295    0.536560     0.007504
AU2571   AU        0.643525    0.429600    0.539812     0.007504
AU2572   AU        0.643899    0.467537    0.573665     0.007504
AU2573   AU        0.680451    0.427789    0.574671     0.007504
AU2574   AU        0.682018    0.467774    0.540830     0.007504
AU2575   AU        0.716993    0.428873    0.537413     0.007504
AU2576   AU        0.715300    0.466840    0.576664     0.007504
AU2577   AU        0.752835    0.430845    0.580096     0.007504
AU2578   AU        0.752238    0.464950    0.543093     0.007504
AU2579   AU        0.788829    0.428786    0.541488     0.007504
PD2580   PD        0.788316    0.465201    0.579720     0.005394
PD2581   PD        0.823854    0.427267    0.577963     0.005394
PD2582   PD        0.823542    0.465456    0.542023     0.005394
PD2583   PD        0.857637    0.428898    0.538304     0.005394
AU2584   AU        0.036030    0.500741    0.576535     0.007504
PD2585   PD        0.039940    0.537652    0.538335     0.005394
PD2586   PD        0.073518    0.498606    0.537162     0.005394
PD2587   PD        0.074130    0.533979    0.578450     0.005394
AU2588   AU        0.110325    0.497975    0.576060     0.007504
AU2589   AU        0.107366    0.534397    0.537643     0.007504
AU2590   AU        0.145834    0.500323    0.538321     0.007504
AU2591   AU        0.141907    0.537451    0.576932     0.007504
AU2592   AU        0.178675    0.502349    0.576926     0.007504
AU2593   AU        0.178810    0.535505    0.538648     0.007504
AU2594   AU        0.213478    0.501914    0.537889     0.007504
AU2595   AU        0.215265    0.537977    0.578556     0.007504
AU2596   AU        0.248483    0.499532    0.576397     0.007504
AU2597   AU        0.250738    0.536789    0.539520     0.007504
AU2598   AU        0.285026    0.500801    0.538644     0.007504
AU2599   AU        0.284407    0.536335    0.579553     0.007504
AU2600   AU        0.321404    0.499451    0.576197     0.007504
AU2601   AU        0.320964    0.536600    0.537792     0.007504
AU2602   AU        0.357190    0.501793    0.538946     0.007504
AU2603   AU        0.356792    0.538702    0.577458     0.007504
AU2604   AU        0.392996    0.503128    0.580141     0.007504
AU2605   AU        0.395058    0.540251    0.540025     0.007504
AU2606   AU        0.430281    0.502574    0.539826     0.007504
AU2607   AU        0.429161    0.536581    0.578454     0.007504
AU2608   AU        0.468193    0.502729    0.575251     0.007504
AU2609   AU        0.467682    0.539920    0.539351     0.007504
AU2610   AU        0.502524    0.500908    0.537884     0.007504
AU2611   AU        0.502948    0.538105    0.578242     0.007504
AU2612   AU        0.537957    0.501912    0.575789     0.007504
AU2613   AU        0.535920    0.537865    0.539818     0.007504
AU2614   AU        0.573588    0.502175    0.535201     0.007504
AU2615   AU        0.573866    0.537371    0.575096     0.007504
AU2616   AU        0.610388    0.500211    0.573004     0.007504
AU2617   AU        0.609218    0.539255    0.535662     0.007504
AU2618   AU        0.646830    0.502725    0.537549     0.007504
AU2619   AU        0.647623    0.539030    0.575397     0.007504
AU2620   AU        0.681663    0.503350    0.574929     0.007504
AU2621   AU        0.684302    0.538966    0.538365     0.007504
PD2622   PD        0.717738    0.504112    0.537820     0.005394
PD2623   PD        0.716328    0.538552    0.578402     0.005394
AU2624   AU        0.752912    0.503489    0.576562     0.007504
PD2625   PD        0.753487    0.537629    0.539782     0.005394
PD2626   PD        0.784928    0.501502    0.538456     0.005394
PD2627   PD        0.786917    0.537236    0.578935     0.005394
PD2628   PD        0.821142    0.502378    0.579452     0.005394
PD2629   PD        0.820048    0.536486    0.540649     0.005394
PD2630   PD        0.041497    0.574488    0.579217     0.005394
AU2631   AU        0.038749    0.607665    0.539606     0.007504
PD2632   PD        0.074805    0.572977    0.537637     0.005394
PD2633   PD        0.074389    0.612125    0.579377     0.005394
AU2634   AU        0.105639    0.572210    0.577785     0.007504
PD2635   PD        0.109227    0.608429    0.543367     0.005394
PD2636   PD        0.142538    0.570974    0.539770     0.005394
PD2637   PD        0.142477    0.609750    0.581496     0.005394
AU2638   AU        0.176922    0.573867    0.578383     0.007504
AU2639   AU        0.178665    0.607504    0.539951     0.007504
AU2640   AU        0.215439    0.572369    0.539891     0.007504
PD2641   PD        0.213913    0.607110    0.580146     0.005394
AU2642   AU        0.251248    0.573711    0.576621     0.007504
AU2643   AU        0.248902    0.608603    0.537594     0.007504
AU2644   AU        0.283518    0.573604    0.538457     0.007504
PD2645   PD        0.285166    0.609416    0.578277     0.005394
AU2646   AU        0.320523    0.572558    0.576734     0.007504
AU2647   AU        0.319044    0.607802    0.540928     0.007504
AU2648   AU        0.354882    0.574336    0.537955     0.007504
AU2649   AU        0.358038    0.610062    0.577003     0.007504
AU2650   AU        0.393720    0.574090    0.578556     0.007504
AU2651   AU        0.393053    0.609156    0.537589     0.007504
AU2652   AU        0.429120    0.575294    0.537388     0.007504
AU2653   AU        0.430560    0.609102    0.577896     0.007504
AU2654   AU        0.466610    0.574166    0.577579     0.007504
AU2655   AU        0.467768    0.609129    0.540085     0.007504
AU2656   AU        0.502070    0.573920    0.540342     0.007504
AU2657   AU        0.503484    0.608405    0.578887     0.007504
AU2658   AU        0.539447    0.574892    0.578103     0.007504
PD2659   PD        0.537793    0.608857    0.538736     0.005394
AU2660   AU        0.573018    0.574829    0.537860     0.007504
AU2661   AU        0.574924    0.610036    0.574836     0.007504
AU2662   AU        0.610794    0.576771    0.574673     0.007504
AU2663   AU        0.608641    0.610941    0.535997     0.007504
AU2664   AU        0.645474    0.575566    0.535960     0.007504
AU2665   AU        0.646610    0.609441    0.576078     0.007504
AU2666   AU        0.681585    0.574397    0.574654     0.007504
PD2667   PD        0.682493    0.610333    0.538674     0.005394
PD2668   PD        0.717964    0.573908    0.539225     0.005394
AU2669   AU        0.718076    0.609147    0.578273     0.007504
AU2670   AU        0.751553    0.572599    0.580222     0.007504
PD2671   PD        0.752653    0.608827    0.541003     0.005394
PD2672   PD        0.785636    0.571015    0.540209     0.005394
PD2673   PD        0.785570    0.610239    0.580943     0.005394
PD2674   PD        0.821623    0.575157    0.577540     0.005394
PD2675   PD        0.820147    0.609767    0.544145     0.005394
AU2676   AU        0.073587    0.643508    0.538484     0.007504
PD2677   PD        0.110084    0.645406    0.578952     0.005394
PD2678   PD        0.108231    0.677359    0.541187     0.005394
PD2679   PD        0.146496    0.642403    0.541302     0.005394
PD2680   PD        0.145206    0.676979    0.578329     0.005394
AU2681   AU        0.179784    0.643014    0.579764     0.007504
PD2682   PD        0.180559    0.676537    0.540889     0.005394
PD2683   PD        0.213199    0.645069    0.543251     0.005394
PD2684   PD        0.213922    0.684110    0.576689     0.005394
AU2685   AU        0.249808    0.644908    0.574402     0.007504
PD2686   PD        0.250227    0.681619    0.539712     0.005394
AU2687   AU        0.286435    0.647057    0.538971     0.007504
AU2688   AU        0.284717    0.681302    0.575245     0.007504
PD2689   PD        0.319860    0.647084    0.576903     0.005394
PD2690   PD        0.320917    0.680134    0.539457     0.005394
AU2691   AU        0.356964    0.645526    0.539581     0.007504
AU2692   AU        0.356905    0.680667    0.574397     0.007504
AU2693   AU        0.394424    0.646594    0.578700     0.007504
AU2694   AU        0.395883    0.679810    0.539334     0.007504
AU2695   AU        0.429444    0.644425    0.538793     0.007504
AU2696   AU        0.431934    0.680685    0.577782     0.007504
AU2697   AU        0.467978    0.644449    0.578013     0.007504
AU2698   AU        0.465661    0.683450    0.539723     0.007504
AU2699   AU        0.502827    0.645609    0.538468     0.007504
AU2700   AU        0.502787    0.681464    0.577281     0.007504
AU2701   AU        0.538377    0.645026    0.576672     0.007504
AU2702   AU        0.537752    0.681720    0.538303     0.007504
AU2703   AU        0.573124    0.645977    0.537898     0.007504
AU2704   AU        0.574908    0.681214    0.576744     0.007504
AU2705   AU        0.610621    0.644910    0.579192     0.007504
PD2706   PD        0.610695    0.678614    0.541118     0.005394
PD2707   PD        0.644962    0.645124    0.541902     0.005394
AU2708   AU        0.646055    0.680784    0.578561     0.007504
PD2709   PD        0.684202    0.645309    0.579143     0.005394
AU2710   AU        0.682065    0.680025    0.540492     0.007504
PD2711   PD        0.717300    0.643393    0.539945     0.005394
AU2712   AU        0.717678    0.680285    0.577931     0.007504
PD2713   PD        0.751681    0.646194    0.579737     0.005394
PD2714   PD        0.751252    0.682301    0.537880     0.005394
PD2715   PD        0.784615    0.642824    0.541194     0.005394
PD2716   PD        0.143697    0.711951    0.541314     0.005394
PD2717   PD        0.179829    0.716246    0.577909     0.005394
PD2718   PD        0.178203    0.750405    0.540432     0.005394
PD2719   PD        0.213024    0.714349    0.538221     0.005394
PD2720   PD        0.215635    0.749458    0.577808     0.005394
AU2721   AU        0.249665    0.717361    0.576370     0.007504
AU2722   AU        0.248470    0.751525    0.537244     0.007504
PD2723   PD        0.284750    0.718913    0.536707     0.005394
PD2724   PD        0.284365    0.751776    0.578736     0.005394
PD2725   PD        0.321662    0.715447    0.576512     0.005394
PD2726   PD        0.320475    0.751848    0.538489     0.005394
PD2727   PD        0.356188    0.718953    0.540371     0.005394
AU2728   AU        0.357659    0.754430    0.578157     0.007504
AU2729   AU        0.393240    0.717638    0.578462     0.007504
AU2730   AU        0.393290    0.753312    0.540054     0.007504
AU2731   AU        0.430231    0.717335    0.540014     0.007504
AU2732   AU        0.432091    0.751705    0.576344     0.007504
AU2733   AU        0.467366    0.716809    0.577546     0.007504
PD2734   PD        0.466440    0.753915    0.539406     0.005394
AU2735   AU        0.501658    0.718991    0.540336     0.007504
AU2736   AU        0.501227    0.753000    0.578358     0.007504
PD2737   PD        0.538566    0.717721    0.575455     0.005394
AU2738   AU        0.536497    0.752675    0.539823     0.007504
AU2739   AU        0.575973    0.715536    0.540896     0.007504
PD2740   PD        0.573776    0.750634    0.578389     0.005394
PD2741   PD        0.610451    0.716483    0.578851     0.005394
PD2742   PD        0.608569    0.751345    0.539316     0.005394
AU2743   AU        0.643694    0.716672    0.539128     0.007504
PD2744   PD        0.644871    0.750449    0.578273     0.005394
AU2745   AU        0.679891    0.717743    0.579654     0.007504
PD2746   PD        0.679991    0.752601    0.542335     0.005394
PD2747   PD        0.713270    0.716067    0.537111     0.005394
PD2748   PD        0.213984    0.785437    0.542772     0.005394
PD2749   PD        0.249881    0.784250    0.580760     0.005394
AU2750   AU        0.248029    0.820266    0.539365     0.007504
PD2751   PD        0.282917    0.786099    0.538220     0.005394
PD2752   PD        0.282357    0.818431    0.580576     0.005394
AU2753   AU        0.318602    0.784459    0.576653     0.007504
PD2754   PD        0.321754    0.818890    0.539881     0.005394
PD2755   PD        0.359658    0.789157    0.536450     0.005394
PD2756   PD        0.356964    0.818523    0.580497     0.005394
PD2757   PD        0.395481    0.786623    0.575118     0.005394
AU2758   AU        0.393150    0.822373    0.540091     0.007504
PD2759   PD        0.428698    0.786970    0.538026     0.005394
PD2760   PD        0.429117    0.820179    0.579785     0.005394
PD2761   PD        0.465708    0.788507    0.577323     0.005394
PD2762   PD        0.464389    0.821616    0.538348     0.005394
AU2763   AU        0.503025    0.787391    0.539009     0.007504
PD2764   PD        0.499088    0.822443    0.577510     0.005394
AU2765   AU        0.536612    0.787025    0.578844     0.007504
AU2766   AU        0.537751    0.823844    0.537611     0.007504
PD2767   PD        0.572924    0.785306    0.539679     0.005394
PD2768   PD        0.572962    0.821147    0.576617     0.005394
PD2769   PD        0.607214    0.783510    0.576679     0.005394
PD2770   PD        0.608165    0.819148    0.540960     0.005394
PD2771   PD        0.643254    0.785371    0.538798     0.005394
PD2772   PD        0.428621    0.854589    0.537573     0.005394
PD2773   PD        0.323380    0.036414    0.613581     0.005394
PD2774   PD        0.360431    0.038992    0.650699     0.005394
PD2775   PD        0.393746    0.037976    0.613364     0.005394
AU2776   AU        0.428396    0.040997    0.654405     0.007504
PD2777   PD        0.466997    0.040792    0.617264     0.005394
PD2778   PD        0.501517    0.037749    0.654901     0.005394
PD2779   PD        0.536248    0.041457    0.613608     0.005394
AU2780   AU        0.180143    0.105917    0.612862     0.007504
PD2781   PD        0.215641    0.109108    0.655351     0.005394
PD2782   PD        0.250874    0.074547    0.654743     0.005394
AU2783   AU        0.250895    0.106517    0.616090     0.007504
PD2784   PD        0.285563    0.073229    0.614647     0.005394
PD2785   PD        0.289016    0.106618    0.651676     0.005394
PD2786   PD        0.325885    0.074469    0.649851     0.005394
PD2787   PD        0.321937    0.106896    0.610974     0.005394
PD2788   PD        0.360300    0.071870    0.611109     0.005394
AU2789   AU        0.359657    0.108294    0.652379     0.007504
PD2790   PD        0.394188    0.075803    0.647062     0.005394
PD2791   PD        0.391714    0.108702    0.613391     0.005394
PD2792   PD        0.428903    0.073236    0.614394     0.005394
AU2793   AU        0.429911    0.107124    0.651343     0.007504
PD2794   PD        0.465376    0.074855    0.654177     0.005394
PD2795   PD        0.464371    0.109014    0.613524     0.005394
PD2796   PD        0.500507    0.075087    0.613344     0.005394
PD2797   PD        0.500870    0.111085    0.650040     0.005394
PD2798   PD        0.535768    0.075628    0.651754     0.005394
PD2799   PD        0.537929    0.108240    0.613906     0.005394
PD2800   PD        0.573476    0.073819    0.614732     0.005394
PD2801   PD        0.575087    0.108324    0.653040     0.005394
PD2802   PD        0.609299    0.072775    0.653036     0.005394
AU2803   AU        0.611184    0.107467    0.616802     0.007504
PD2804   PD        0.644339    0.107942    0.657656     0.005394
PD2805   PD        0.679073    0.108783    0.618535     0.005394
PD2806   PD        0.108700    0.178401    0.614787     0.005394
PD2807   PD        0.145256    0.144140    0.611913     0.005394
PD2808   PD        0.144537    0.177955    0.653471     0.005394
PD2809   PD        0.179668    0.144577    0.650478     0.005394
AU2810   AU        0.180078    0.178696    0.614319     0.007504
PD2811   PD        0.215536    0.143143    0.614698     0.005394
PD2812   PD        0.215031    0.179215    0.651113     0.005394
AU2813   AU        0.252493    0.142730    0.652344     0.007504
PD2814   PD        0.248814    0.180939    0.614623     0.005394
PD2815   PD        0.286713    0.141923    0.615733     0.005394
PD2816   PD        0.287486    0.174528    0.654042     0.005394
PD2817   PD        0.322647    0.143567    0.653182     0.005394
AU2818   AU        0.320617    0.178026    0.615825     0.007504
PD2819   PD        0.356290    0.143231    0.614339     0.005394
PD2820   PD        0.357464    0.176385    0.651226     0.005394
PD2821   PD        0.393068    0.144369    0.653268     0.005394
AU2822   AU        0.392682    0.179260    0.611598     0.007504
AU2823   AU        0.427612    0.144542    0.616121     0.007504
PD2824   PD        0.429209    0.177533    0.653562     0.005394
PD2825   PD        0.468627    0.143440    0.652055     0.005394
AU2826   AU        0.466281    0.177010    0.613460     0.007504
PD2827   PD        0.503480    0.143867    0.613382     0.005394
PD2828   PD        0.502990    0.176388    0.652620     0.005394
PD2829   PD        0.537291    0.141327    0.652593     0.005394
AU2830   AU        0.541179    0.177583    0.614064     0.007504
AU2831   AU        0.575416    0.142667    0.617064     0.007504
PD2832   PD        0.574681    0.176839    0.654473     0.005394
PD2833   PD        0.609623    0.144040    0.654360     0.005394
AU2834   AU        0.612217    0.178082    0.616581     0.007504
PD2835   PD        0.646214    0.141674    0.616502     0.005394
PD2836   PD        0.645077    0.178272    0.653881     0.005394
PD2837   PD        0.679113    0.145640    0.655132     0.005394
PD2838   PD        0.681296    0.177124    0.615896     0.005394
PD2839   PD        0.714272    0.143214    0.618379     0.005394
PD2840   PD        0.714080    0.178226    0.653607     0.005394
AU2841   AU        0.750775    0.176569    0.616112     0.007504
PD2842   PD        0.076120    0.250199    0.648894     0.005394
AU2843   AU        0.108953    0.214510    0.652023     0.007504
PD2844   PD        0.110371    0.250219    0.613952     0.005394
PD2845   PD        0.144664    0.213426    0.613727     0.005394
PD2846   PD        0.145230    0.251414    0.651038     0.005394
PD2847   PD        0.181976    0.215009    0.650754     0.005394
AU2848   AU        0.178222    0.248961    0.610512     0.007504
PD2849   PD        0.216298    0.214371    0.612009     0.005394
AU2850   AU        0.214172    0.248652    0.650170     0.007504
PD2851   PD        0.251219    0.213739    0.653389     0.005394
AU2852   AU        0.252289    0.250295    0.615803     0.007504
AU2853   AU        0.286141    0.212531    0.614064     0.007504
PD2854   PD        0.284401    0.249566    0.654897     0.005394
PD2855   PD        0.323498    0.210800    0.654232     0.005394
AU2856   AU        0.320478    0.250274    0.617378     0.007504
AU2857   AU        0.356170    0.213232    0.614794     0.007504
AU2858   AU        0.356201    0.249355    0.652311     0.007504
AU2859   AU        0.392446    0.211969    0.654268     0.007504
AU2860   AU        0.393044    0.248828    0.614446     0.007504
AU2861   AU        0.429042    0.213924    0.615202     0.007504
AU2862   AU        0.427458    0.247453    0.653956     0.007504
PD2863   PD        0.465035    0.211452    0.651779     0.005394
AU2864   AU        0.468630    0.249888    0.615115     0.007504
AU2865   AU        0.503783    0.210772    0.614862     0.007504
PD2866   PD        0.501864    0.245361    0.654673     0.005394
AU2867   AU        0.538036    0.213801    0.652810     0.007504
PD2868   PD        0.535283    0.249041    0.615363     0.005394
AU2869   AU        0.575866    0.212080    0.619815     0.007504
PD2870   PD        0.574277    0.249324    0.653510     0.005394
AU2871   AU        0.611075    0.214418    0.654651     0.007504
PD2872   PD        0.609232    0.250183    0.616160     0.005394
PD2873   PD        0.645862    0.214932    0.619135     0.005394
PD2874   PD        0.645637    0.247782    0.657548     0.005394
PD2875   PD        0.678743    0.212781    0.655898     0.005394
PD2876   PD        0.682535    0.248336    0.616488     0.005394
PD2877   PD        0.717615    0.212661    0.616818     0.005394
PD2878   PD        0.715025    0.248456    0.653558     0.005394
PD2879   PD        0.749688    0.213798    0.655020     0.005394
PD2880   PD        0.750432    0.247072    0.616920     0.005394
PD2881   PD        0.788393    0.245294    0.652542     0.005394
PD2882   PD        0.037014    0.321638    0.611095     0.005394
PD2883   PD        0.072684    0.288450    0.613127     0.005394
PD2884   PD        0.074114    0.323223    0.652319     0.005394
AU2885   AU        0.107890    0.287478    0.653163     0.007504
PD2886   PD        0.108008    0.321384    0.613855     0.005394
PD2887   PD        0.144702    0.286256    0.613960     0.005394
AU2888   AU        0.144706    0.321308    0.653667     0.007504
PD2889   PD        0.179186    0.287219    0.651982     0.005394
PD2890   PD        0.178713    0.322182    0.617031     0.005394
AU2891   AU        0.215582    0.283784    0.613811     0.007504
AU2892   AU        0.214627    0.320443    0.654196     0.007504
PD2893   PD        0.251403    0.284998    0.654768     0.005394
AU2894   AU        0.247402    0.323725    0.614881     0.007504
AU2895   AU        0.285572    0.286030    0.616138     0.007504
AU2896   AU        0.287315    0.324544    0.653251     0.007504
AU2897   AU        0.321802    0.280233    0.655767     0.007504
AU2898   AU        0.321781    0.319418    0.615585     0.007504
AU2899   AU        0.359401    0.285890    0.613255     0.007504
AU2900   AU        0.361322    0.317788    0.652578     0.007504
AU2901   AU        0.395448    0.284665    0.655076     0.007504
AU2902   AU        0.396053    0.321496    0.614507     0.007504
AU2903   AU        0.431399    0.284082    0.616987     0.007504
AU2904   AU        0.428504    0.320801    0.656839     0.007504
AU2905   AU        0.466341    0.285164    0.654601     0.007504
AU2906   AU        0.466210    0.320025    0.617352     0.007504
AU2907   AU        0.503024    0.283163    0.616235     0.007504
AU2908   AU        0.503235    0.321106    0.653129     0.007504
AU2909   AU        0.536070    0.280300    0.656031     0.007504
AU2910   AU        0.537681    0.320038    0.615604     0.007504
AU2911   AU        0.573299    0.284808    0.615726     0.007504
AU2912   AU        0.572510    0.317568    0.653773     0.007504
AU2913   AU        0.609685    0.282662    0.656210     0.007504
AU2914   AU        0.609598    0.319832    0.616133     0.007504
AU2915   AU        0.645996    0.283703    0.615854     0.007504
AU2916   AU        0.646986    0.319518    0.653668     0.007504
PD2917   PD        0.683979    0.283301    0.653450     0.005394
PD2918   PD        0.681062    0.319791    0.616326     0.005394
PD2919   PD        0.715527    0.284543    0.615966     0.005394
PD2920   PD        0.716471    0.320335    0.652526     0.005394
AU2921   AU        0.753803    0.283566    0.651921     0.007504
PD2922   PD        0.752249    0.321012    0.615044     0.005394
PD2923   PD        0.788699    0.284882    0.614133     0.005394
AU2924   AU        0.787459    0.320797    0.652808     0.007504
AU2925   AU        0.824503    0.320354    0.614393     0.007504
PD2926   PD        0.037908    0.356886    0.652753     0.005394
PD2927   PD        0.037148    0.390724    0.614725     0.005394
AU2928   AU        0.073657    0.356071    0.615547     0.007504
PD2929   PD        0.073773    0.392336    0.655211     0.005394
PD2930   PD        0.108410    0.358523    0.652890     0.005394
AU2931   AU        0.106462    0.393765    0.614186     0.007504
AU2932   AU        0.140891    0.358548    0.612125     0.007504
AU2933   AU        0.143207    0.391952    0.651203     0.007504
PD2934   PD        0.177430    0.359122    0.654657     0.005394
PD2935   PD        0.176125    0.392519    0.612623     0.005394
AU2936   AU        0.212895    0.358082    0.615977     0.007504
AU2937   AU        0.213195    0.393258    0.653432     0.007504
AU2938   AU        0.251013    0.356829    0.652001     0.007504
AU2939   AU        0.246975    0.392555    0.613232     0.007504
AU2940   AU        0.286490    0.355896    0.613057     0.007504
AU2941   AU        0.286355    0.392471    0.654381     0.007504
AU2942   AU        0.322205    0.356360    0.656752     0.007504
AU2943   AU        0.321008    0.392796    0.619135     0.007504
AU2944   AU        0.354718    0.358627    0.614780     0.007504
AU2945   AU        0.360772    0.391306    0.652887     0.007504
AU2946   AU        0.394430    0.354983    0.654743     0.007504
AU2947   AU        0.394291    0.392184    0.614657     0.007504
AU2948   AU        0.431307    0.355299    0.616577     0.007504
AU2949   AU        0.430876    0.391821    0.651800     0.007504
AU2950   AU        0.466832    0.357967    0.654786     0.007504
AU2951   AU        0.467449    0.393323    0.612770     0.007504
AU2952   AU        0.498751    0.357657    0.615286     0.007504
AU2953   AU        0.501893    0.392446    0.653878     0.007504
AU2954   AU        0.537163    0.356910    0.654467     0.007504
AU2955   AU        0.536045    0.392013    0.617423     0.007504
AU2956   AU        0.572564    0.356936    0.617585     0.007504
AU2957   AU        0.573678    0.392219    0.653138     0.007504
AU2958   AU        0.608561    0.356527    0.653862     0.007504
AU2959   AU        0.608095    0.390804    0.616016     0.007504
PD2960   PD        0.643509    0.355749    0.616520     0.005394
AU2961   AU        0.643527    0.391630    0.653495     0.007504
AU2962   AU        0.679929    0.357302    0.653278     0.007504
AU2963   AU        0.679743    0.391539    0.614299     0.007504
PD2964   PD        0.717291    0.358435    0.616448     0.005394
AU2965   AU        0.716156    0.390103    0.656231     0.007504
AU2966   AU        0.751721    0.355426    0.655456     0.007504
PD2967   PD        0.754493    0.390914    0.615416     0.005394
PD2968   PD        0.789250    0.356279    0.614165     0.005394
PD2969   PD        0.790507    0.390533    0.655234     0.005394
PD2970   PD        0.820933    0.356707    0.653694     0.005394
PD2971   PD        0.822709    0.390614    0.616941     0.005394
PD2972   PD        0.037294    0.425595    0.650908     0.005394
PD2973   PD        0.037618    0.463862    0.617517     0.005394
PD2974   PD        0.071168    0.428874    0.614339     0.005394
PD2975   PD        0.075918    0.465128    0.653877     0.005394
PD2976   PD        0.107341    0.430167    0.650713     0.005394
PD2977   PD        0.107331    0.465097    0.612871     0.005394
AU2978   AU        0.141411    0.426626    0.612301     0.007504
AU2979   AU        0.143376    0.463460    0.651936     0.007504
PD2980   PD        0.177023    0.430484    0.648573     0.005394
PD2981   PD        0.178186    0.465549    0.613703     0.005394
AU2982   AU        0.214845    0.428681    0.613752     0.007504
AU2983   AU        0.213642    0.464349    0.653998     0.007504
AU2984   AU        0.248955    0.427730    0.652108     0.007504
AU2985   AU        0.251534    0.464695    0.614296     0.007504
AU2986   AU        0.285228    0.427052    0.613832     0.007504
AU2987   AU        0.287769    0.462556    0.653390     0.007504
AU2988   AU        0.323591    0.428741    0.655980     0.007504
AU2989   AU        0.321132    0.463961    0.615980     0.007504
AU2990   AU        0.361722    0.427643    0.616967     0.007504
AU2991   AU        0.358154    0.462222    0.652781     0.007504
AU2992   AU        0.395843    0.428296    0.652354     0.007504
AU2993   AU        0.397149    0.463639    0.613599     0.007504
AU2994   AU        0.433206    0.427715    0.614971     0.007504
AU2995   AU        0.429244    0.465991    0.653715     0.007504
AU2996   AU        0.465123    0.428359    0.654711     0.007504
AU2997   AU        0.465359    0.465082    0.615996     0.007504
AU2998   AU        0.502781    0.428626    0.616007     0.007504
AU2999   AU        0.500655    0.464519    0.653855     0.007504
AU3000   AU        0.538675    0.428388    0.654086     0.007504
AU3001   AU        0.535516    0.465167    0.618108     0.007504
AU3002   AU        0.571262    0.430349    0.616224     0.007504
AU3003   AU        0.573947    0.465502    0.654683     0.007504
AU3004   AU        0.609019    0.430345    0.655554     0.007504
PD3005   PD        0.607960    0.465014    0.614958     0.005394
AU3006   AU        0.644995    0.429220    0.614324     0.007504
AU3007   AU        0.645521    0.464829    0.652315     0.007504
AU3008   AU        0.680901    0.428165    0.657383     0.007504
AU3009   AU        0.683240    0.464153    0.615861     0.007504
AU3010   AU        0.713796    0.429005    0.615168     0.007504
PD3011   PD        0.715443    0.467571    0.655720     0.005394
AU3012   AU        0.751897    0.427226    0.651690     0.007504
PD3013   PD        0.747620    0.467841    0.616748     0.005394
PD3014   PD        0.786867    0.429520    0.616745     0.005394
AU3015   AU        0.785487    0.464888    0.653602     0.007504
PD3016   PD        0.821640    0.429311    0.655269     0.005394
PD3017   PD        0.823572    0.466780    0.618274     0.005394
PD3018   PD        0.041769    0.496336    0.654233     0.005394
AU3019   AU        0.039213    0.536488    0.620628     0.007504
PD3020   PD        0.074899    0.502130    0.616588     0.005394
AU3021   AU        0.075967    0.537189    0.656671     0.007504
PD3022   PD        0.109742    0.499199    0.654208     0.005394
PD3023   PD        0.111340    0.535646    0.616542     0.005394
PD3024   PD        0.142441    0.500222    0.615508     0.005394
PD3025   PD        0.146026    0.534995    0.651845     0.005394
AU3026   AU        0.177880    0.499340    0.653029     0.007504
AU3027   AU        0.181405    0.537368    0.617382     0.007504
AU3028   AU        0.215338    0.500185    0.617573     0.007504
PD3029   PD        0.213553    0.536386    0.656369     0.005394
AU3030   AU        0.251555    0.500646    0.654300     0.007504
PD3031   PD        0.250180    0.538226    0.617155     0.005394
AU3032   AU        0.285029    0.501769    0.614496     0.007504
AU3033   AU        0.284534    0.538080    0.656432     0.007504
AU3034   AU        0.321281    0.502102    0.657022     0.007504
AU3035   AU        0.323238    0.536759    0.617180     0.007504
AU3036   AU        0.356995    0.500196    0.617949     0.007504
AU3037   AU        0.357471    0.536276    0.655660     0.007504
AU3038   AU        0.393456    0.501159    0.653112     0.007504
AU3039   AU        0.391160    0.538053    0.615512     0.007504
AU3040   AU        0.430914    0.500879    0.615293     0.007504
AU3041   AU        0.431375    0.535580    0.652584     0.007504
AU3042   AU        0.467519    0.498876    0.654694     0.007504
AU3043   AU        0.466464    0.537534    0.615229     0.007504
AU3044   AU        0.501735    0.501183    0.616928     0.007504
AU3045   AU        0.504222    0.537146    0.654675     0.007504
AU3046   AU        0.539488    0.502370    0.654602     0.007504
AU3047   AU        0.539830    0.537616    0.617074     0.007504
AU3048   AU        0.574704    0.501722    0.614070     0.007504
AU3049   AU        0.578095    0.538202    0.654432     0.007504
AU3050   AU        0.612069    0.500604    0.650820     0.007504
AU3051   AU        0.611482    0.537329    0.613221     0.007504
AU3052   AU        0.646211    0.500420    0.613558     0.007504
AU3053   AU        0.643585    0.538111    0.652041     0.007504
PD3054   PD        0.683419    0.501708    0.653573     0.005394
PD3055   PD        0.682115    0.534631    0.616197     0.005394
PD3056   PD        0.716448    0.502024    0.615814     0.005394
PD3057   PD        0.715725    0.537912    0.654502     0.005394
PD3058   PD        0.749439    0.500672    0.653176     0.005394
AU3059   AU        0.749947    0.537808    0.617011     0.007504
PD3060   PD        0.785272    0.500646    0.616461     0.005394
PD3061   PD        0.783485    0.535723    0.654764     0.005394
PD3062   PD        0.820014    0.502100    0.655516     0.005394
PD3063   PD        0.818821    0.537654    0.617258     0.005394
AU3064   AU        0.076599    0.570738    0.616176     0.007504
AU3065   AU        0.072678    0.604989    0.651211     0.007504
PD3066   PD        0.111637    0.569597    0.654960     0.005394
PD3067   PD        0.109377    0.607876    0.615973     0.005394
PD3068   PD        0.143170    0.570574    0.616838     0.005394
PD3069   PD        0.144822    0.605378    0.653423     0.005394
PD3070   PD        0.182199    0.571868    0.655718     0.005394
AU3071   AU        0.177860    0.607460    0.617759     0.007504
AU3072   AU        0.216679    0.574112    0.617781     0.007504
AU3073   AU        0.214434    0.608895    0.655159     0.007504
AU3074   AU        0.248823    0.570497    0.656909     0.007504
AU3075   AU        0.250268    0.611010    0.617927     0.007504
AU3076   AU        0.284093    0.572369    0.618163     0.007504
AU3077   AU        0.285490    0.610563    0.654515     0.007504
AU3078   AU        0.321400    0.572518    0.657158     0.007504
AU3079   AU        0.320988    0.609526    0.615119     0.007504
AU3080   AU        0.357148    0.574378    0.617006     0.007504
AU3081   AU        0.358179    0.610308    0.654033     0.007504
AU3082   AU        0.395730    0.570334    0.651844     0.007504
AU3083   AU        0.394721    0.610381    0.615124     0.007504
AU3084   AU        0.431132    0.572874    0.614881     0.007504
AU3085   AU        0.429981    0.611564    0.652188     0.007504
AU3086   AU        0.464764    0.573654    0.654621     0.007504
AU3087   AU        0.465261    0.610446    0.614727     0.007504
AU3088   AU        0.502543    0.573191    0.616017     0.007504
AU3089   AU        0.503837    0.609162    0.656210     0.007504
AU3090   AU        0.539173    0.573517    0.653462     0.007504
AU3091   AU        0.538511    0.610349    0.617178     0.007504
AU3092   AU        0.574372    0.575829    0.614532     0.007504
AU3093   AU        0.572493    0.609505    0.656351     0.007504
AU3094   AU        0.610498    0.575671    0.651814     0.007504
PD3095   PD        0.609818    0.611890    0.615820     0.005394
PD3096   PD        0.646122    0.576749    0.616562     0.005394
PD3097   PD        0.646505    0.611117    0.654908     0.005394
PD3098   PD        0.682333    0.571363    0.653486     0.005394
PD3099   PD        0.682290    0.608451    0.616105     0.005394
PD3100   PD        0.716583    0.572308    0.615423     0.005394
PD3101   PD        0.715415    0.607843    0.655346     0.005394
PD3102   PD        0.751430    0.572699    0.655978     0.005394
PD3103   PD        0.751175    0.609471    0.617479     0.005394
PD3104   PD        0.785457    0.571183    0.616929     0.005394
PD3105   PD        0.785996    0.607734    0.653785     0.005394
AU3106   AU        0.108826    0.641101    0.656071     0.007504
PD3107   PD        0.109304    0.678668    0.619734     0.005394
PD3108   PD        0.146599    0.646257    0.616140     0.005394
PD3109   PD        0.145422    0.676836    0.657222     0.005394
PD3110   PD        0.179967    0.643707    0.655059     0.005394
PD3111   PD        0.181998    0.679013    0.616325     0.005394
AU3112   AU        0.215657    0.643512    0.617134     0.007504
AU3113   AU        0.215198    0.678343    0.655890     0.007504
PD3114   PD        0.251630    0.643839    0.656092     0.005394
AU3115   AU        0.250976    0.679316    0.615534     0.007504
AU3116   AU        0.286145    0.642206    0.616181     0.007504
PD3117   PD        0.285982    0.679670    0.656908     0.005394
AU3118   AU        0.321202    0.648075    0.655285     0.007504
AU3119   AU        0.321239    0.681688    0.615518     0.007504
AU3120   AU        0.356617    0.645150    0.612500     0.007504
AU3121   AU        0.358543    0.678452    0.654029     0.007504
PD3122   PD        0.394309    0.644930    0.656529     0.005394
AU3123   AU        0.393864    0.679464    0.616746     0.007504
AU3124   AU        0.429102    0.646134    0.614676     0.007504
AU3125   AU        0.430072    0.679163    0.656275     0.007504
AU3126   AU        0.463814    0.645206    0.655738     0.007504
AU3127   AU        0.466239    0.680960    0.614248     0.007504
AU3128   AU        0.502649    0.644951    0.615905     0.007504
AU3129   AU        0.503396    0.680347    0.655825     0.007504
PD3130   PD        0.538848    0.643861    0.657037     0.005394
AU3131   AU        0.537856    0.680818    0.616242     0.007504
AU3132   AU        0.573818    0.644939    0.615612     0.007504
AU3133   AU        0.573138    0.678717    0.654706     0.007504
AU3134   AU        0.612975    0.644459    0.654258     0.007504
AU3135   AU        0.608640    0.680198    0.617261     0.007504
PD3136   PD        0.649107    0.645768    0.615799     0.005394
PD3137   PD        0.646834    0.679237    0.655796     0.005394
AU3138   AU        0.681442    0.642550    0.655949     0.007504
PD3139   PD        0.681632    0.680155    0.617696     0.005394
PD3140   PD        0.715541    0.643974    0.617394     0.005394
PD3141   PD        0.719072    0.678525    0.657788     0.005394
PD3142   PD        0.750221    0.642186    0.654078     0.005394
PD3143   PD        0.749363    0.676799    0.615822     0.005394
PD3144   PD        0.144759    0.711004    0.614564     0.005394
AU3145   AU        0.178964    0.713733    0.655901     0.007504
PD3146   PD        0.179591    0.747880    0.615940     0.005394
PD3147   PD        0.215921    0.715345    0.617417     0.005394
AU3148   AU        0.212627    0.750008    0.658014     0.007504
AU3149   AU        0.250957    0.715863    0.654413     0.007504
PD3150   PD        0.249091    0.751564    0.618123     0.005394
AU3151   AU        0.286295    0.718117    0.615863     0.007504
PD3152   PD        0.287367    0.751645    0.656464     0.005394
AU3153   AU        0.321418    0.717017    0.657544     0.007504
AU3154   AU        0.322160    0.751653    0.615327     0.007504
AU3155   AU        0.356318    0.714589    0.615270     0.007504
AU3156   AU        0.357975    0.750550    0.654161     0.007504
AU3157   AU        0.393398    0.714920    0.655680     0.007504
PD3158   PD        0.392617    0.752940    0.614747     0.005394
AU3159   AU        0.427263    0.717070    0.616799     0.007504
AU3160   AU        0.428913    0.749961    0.655897     0.007504
AU3161   AU        0.464989    0.713747    0.650616     0.007504
AU3162   AU        0.464703    0.751432    0.615741     0.007504
PD3163   PD        0.503486    0.715374    0.614683     0.005394
PD3164   PD        0.500686    0.749562    0.656277     0.005394
AU3165   AU        0.537933    0.717637    0.656353     0.007504
PD3166   PD        0.537239    0.749983    0.615814     0.005394
AU3167   AU        0.573141    0.716563    0.616142     0.007504
PD3168   PD        0.573482    0.749561    0.654846     0.005394
PD3169   PD        0.610150    0.716007    0.654091     0.005394
PD3170   PD        0.610189    0.749266    0.615683     0.005394
PD3171   PD        0.644760    0.714062    0.619439     0.005394
PD3172   PD        0.645709    0.752792    0.654567     0.005394
PD3173   PD        0.682456    0.713554    0.655530     0.005394
PD3174   PD        0.680450    0.747589    0.619455     0.005394
PD3175   PD        0.716130    0.712746    0.620839     0.005394
AU3176   AU        0.249826    0.785314    0.658889     0.007504
PD3177   PD        0.284985    0.785201    0.619094     0.005394
PD3178   PD        0.324803    0.784044    0.655756     0.005394
PD3179   PD        0.322096    0.819639    0.615901     0.005394
PD3180   PD        0.359273    0.788092    0.618837     0.005394
PD3181   PD        0.357473    0.818969    0.656979     0.005394
PD3182   PD        0.394125    0.785677    0.653202     0.005394
PD3183   PD        0.394359    0.820179    0.617632     0.005394
AU3184   AU        0.429379    0.784392    0.616864     0.007504
PD3185   PD        0.430521    0.819601    0.655206     0.005394
PD3186   PD        0.465942    0.782153    0.655366     0.005394
PD3187   PD        0.465058    0.820792    0.618217     0.005394
AU3188   AU        0.501417    0.786717    0.616491     0.007504
AU3189   AU        0.498796    0.820791    0.656572     0.007504
PD3190   PD        0.535322    0.783775    0.654820     0.005394
PD3191   PD        0.535164    0.822272    0.617622     0.005394
AU3192   AU        0.572374    0.784923    0.616790     0.007504
PD3193   PD        0.609320    0.782629    0.654005     0.005394
PD3194   PD        0.250019    0.108486    0.693494     0.005394
AU3195   AU        0.287328    0.103856    0.728634     0.007504
AU3196   AU        0.325136    0.104410    0.691756     0.007504
PD3197   PD        0.363344    0.072799    0.689875     0.005394
AU3198   AU        0.362292    0.107488    0.731207     0.007504
PD3199   PD        0.398384    0.073512    0.728552     0.005394
AU3200   AU        0.396761    0.108810    0.690502     0.007504
PD3201   PD        0.431884    0.075950    0.691212     0.005394
PD3202   PD        0.432917    0.110217    0.728902     0.005394
PD3203   PD        0.467088    0.072079    0.729983     0.005394
PD3204   PD        0.467080    0.108790    0.690218     0.005394
PD3205   PD        0.501573    0.072786    0.691613     0.005394
AU3206   AU        0.505654    0.104908    0.731874     0.007504
PD3207   PD        0.538767    0.106092    0.688951     0.005394
PD3208   PD        0.572780    0.105805    0.728113     0.005394
PD3209   PD        0.608816    0.107988    0.693491     0.005394
PD3210   PD        0.180740    0.180580    0.688541     0.005394
PD3211   PD        0.213155    0.143988    0.689801     0.005394
PD3212   PD        0.217195    0.180443    0.727565     0.005394
PD3213   PD        0.250221    0.145137    0.729381     0.005394
PD3214   PD        0.251501    0.178747    0.688673     0.005394
AU3215   AU        0.288177    0.141761    0.692718     0.007504
PD3216   PD        0.287968    0.179402    0.731582     0.005394
AU3217   AU        0.322332    0.139169    0.731922     0.007504
PD3218   PD        0.323052    0.176123    0.690711     0.005394
AU3219   AU        0.357222    0.141191    0.692566     0.007504
PD3220   PD        0.359684    0.176515    0.730816     0.005394
AU3221   AU        0.397475    0.143383    0.730710     0.007504
AU3222   AU        0.391832    0.176393    0.691049     0.007504
AU3223   AU        0.432466    0.144096    0.690718     0.007504
AU3224   AU        0.432224    0.177540    0.732203     0.007504
AU3225   AU        0.469959    0.139782    0.731803     0.007504
AU3226   AU        0.466604    0.178560    0.692274     0.007504
PD3227   PD        0.504748    0.141340    0.687992     0.005394
AU3228   AU        0.506140    0.176961    0.732583     0.007504
PD3229   PD        0.540432    0.140008    0.731022     0.005394
AU3230   AU        0.540466    0.177581    0.690881     0.007504
PD3231   PD        0.574259    0.141857    0.690213     0.005394
PD3232   PD        0.574786    0.177335    0.729423     0.005394
PD3233   PD        0.607627    0.143441    0.729340     0.005394
PD3234   PD        0.610299    0.179163    0.691511     0.005394
PD3235   PD        0.645405    0.141982    0.692119     0.005394
PD3236   PD        0.644383    0.178289    0.729591     0.005394
PD3237   PD        0.682359    0.178008    0.694531     0.005394
PD3238   PD        0.111652    0.252231    0.688700     0.005394
AU3239   AU        0.144756    0.216806    0.689440     0.007504
PD3240   PD        0.147224    0.252291    0.726058     0.005394
PD3241   PD        0.182225    0.215474    0.727513     0.005394
PD3242   PD        0.182214    0.250837    0.690072     0.005394
AU3243   AU        0.216740    0.214732    0.687774     0.007504
AU3244   AU        0.215809    0.249349    0.730228     0.007504
AU3245   AU        0.251011    0.213025    0.728302     0.007504
PD3246   PD        0.249889    0.249170    0.691891     0.005394
AU3247   AU        0.289272    0.210966    0.691194     0.007504
PD3248   PD        0.284746    0.245625    0.728040     0.005394
PD3249   PD        0.322768    0.208430    0.730842     0.005394
AU3250   AU        0.321647    0.247831    0.693853     0.007504
PD3251   PD        0.356830    0.213752    0.694072     0.005394
AU3252   AU        0.357362    0.247656    0.730061     0.007504
AU3253   AU        0.394157    0.212139    0.733113     0.007504
AU3254   AU        0.394785    0.245685    0.691940     0.007504
AU3255   AU        0.429193    0.210455    0.692551     0.007504
AU3256   AU        0.431645    0.249460    0.733282     0.007504
AU3257   AU        0.467453    0.214015    0.732570     0.007504
AU3258   AU        0.466392    0.249937    0.692959     0.007504
AU3259   AU        0.502208    0.211811    0.691704     0.007504
AU3260   AU        0.503141    0.248147    0.730700     0.007504
AU3261   AU        0.540065    0.215183    0.730300     0.007504
PD3262   PD        0.538914    0.248674    0.692624     0.005394
PD3263   PD        0.574235    0.214109    0.690868     0.005394
PD3264   PD        0.574263    0.250054    0.730291     0.005394
PD3265   PD        0.607508    0.213789    0.729337     0.005394
PD3266   PD        0.609287    0.248648    0.692907     0.005394
PD3267   PD        0.646423    0.213756    0.692226     0.005394
AU3268   AU        0.642877    0.248279    0.729852     0.007504
PD3269   PD        0.680748    0.212933    0.730408     0.005394
PD3270   PD        0.680882    0.249623    0.693495     0.005394
PD3271   PD        0.716227    0.215918    0.691863     0.005394
PD3272   PD        0.713408    0.250079    0.732165     0.005394
AU3273   AU        0.754009    0.250623    0.692080     0.007504
AU3274   AU        0.109321    0.286758    0.727638     0.007504
PD3275   PD        0.109354    0.321599    0.689767     0.005394
PD3276   PD        0.147157    0.288027    0.689252     0.005394
PD3277   PD        0.143072    0.324316    0.727173     0.005394
AU3278   AU        0.178963    0.288882    0.728873     0.007504
PD3279   PD        0.178921    0.323821    0.690914     0.005394
PD3280   PD        0.214929    0.284901    0.688102     0.005394
PD3281   PD        0.216365    0.323099    0.728046     0.005394
PD3282   PD        0.249958    0.284893    0.730114     0.005394
AU3283   AU        0.251458    0.321724    0.693309     0.007504
AU3284   AU        0.285991    0.282531    0.691489     0.007504
AU3285   AU        0.286306    0.321875    0.731372     0.007504
AU3286   AU        0.321464    0.287060    0.732756     0.007504
AU3287   AU        0.321441    0.318459    0.691227     0.007504
AU3288   AU        0.357805    0.283978    0.694364     0.007504
AU3289   AU        0.356566    0.319661    0.731191     0.007504
AU3290   AU        0.393100    0.282805    0.732478     0.007504
AU3291   AU        0.395116    0.320606    0.697767     0.007504
AU3292   AU        0.430294    0.283384    0.692617     0.007504
AU3293   AU        0.431311    0.318930    0.732689     0.007504
PD3294   PD        0.467232    0.284403    0.730823     0.005394
AU3295   AU        0.465375    0.319466    0.693715     0.007504
AU3296   AU        0.502854    0.284430    0.692993     0.007504
AU3297   AU        0.501254    0.321260    0.730437     0.007504
AU3298   AU        0.537726    0.285679    0.729579     0.007504
AU3299   AU        0.535593    0.322724    0.691575     0.007504
AU3300   AU        0.575236    0.283381    0.692672     0.007504
PD3301   PD        0.569962    0.320527    0.731378     0.005394
PD3302   PD        0.608397    0.284105    0.730188     0.005394
AU3303   AU        0.611606    0.320241    0.693827     0.007504
PD3304   PD        0.644248    0.284044    0.692484     0.005394
PD3305   PD        0.645751    0.320461    0.729040     0.005394
PD3306   PD        0.679582    0.283864    0.729924     0.005394
AU3307   AU        0.681515    0.321183    0.692526     0.007504
AU3308   AU        0.716864    0.283981    0.693311     0.007504
PD3309   PD        0.715314    0.321420    0.728877     0.005394
PD3310   PD        0.749303    0.285898    0.732901     0.005394
PD3311   PD        0.753313    0.319622    0.695040     0.005394
PD3312   PD        0.073442    0.356613    0.691533     0.005394
PD3313   PD        0.073217    0.391880    0.724946     0.005394
PD3314   PD        0.108506    0.357776    0.729231     0.005394
PD3315   PD        0.109510    0.392762    0.689594     0.005394
PD3316   PD        0.143481    0.356488    0.690474     0.005394
AU3317   AU        0.143581    0.391948    0.726373     0.007504
PD3318   PD        0.180789    0.357266    0.727625     0.005394
AU3319   AU        0.180061    0.395897    0.690436     0.007504
AU3320   AU        0.215946    0.357581    0.691050     0.007504
PD3321   PD        0.215444    0.393321    0.728906     0.005394
PD3322   PD        0.249848    0.359351    0.731584     0.005394
AU3323   AU        0.249780    0.392873    0.690862     0.007504
AU3324   AU        0.285420    0.357152    0.693151     0.007504
AU3325   AU        0.284586    0.393398    0.730562     0.007504
AU3326   AU        0.323348    0.355758    0.729751     0.007504
AU3327   AU        0.322695    0.392566    0.691706     0.007504
AU3328   AU        0.359493    0.355574    0.692668     0.007504
AU3329   AU        0.357542    0.392230    0.732056     0.007504
AU3330   AU        0.393552    0.356472    0.732695     0.007504
AU3331   AU        0.396533    0.390012    0.694510     0.007504
AU3332   AU        0.429861    0.354601    0.694120     0.007504
AU3333   AU        0.429861    0.391907    0.731618     0.007504
AU3334   AU        0.467309    0.355744    0.729742     0.007504
AU3335   AU        0.463921    0.391094    0.694293     0.007504
PD3336   PD        0.502402    0.355802    0.693684     0.005394
AU3337   AU        0.501396    0.393674    0.729130     0.007504
AU3338   AU        0.537984    0.355403    0.735888     0.007504
AU3339   AU        0.539378    0.390627    0.693807     0.007504
AU3340   AU        0.573862    0.354267    0.692151     0.007504
AU3341   AU        0.573655    0.390792    0.732957     0.007504
AU3342   AU        0.607846    0.354079    0.732149     0.007504
AU3343   AU        0.610712    0.391059    0.692638     0.007504
AU3344   AU        0.646852    0.355223    0.692119     0.007504
AU3345   AU        0.644455    0.392165    0.730353     0.007504
PD3346   PD        0.682489    0.357402    0.729953     0.005394
AU3347   AU        0.680192    0.391820    0.693061     0.007504
AU3348   AU        0.717369    0.355711    0.692648     0.007504
PD3349   PD        0.717331    0.390498    0.730909     0.005394
PD3350   PD        0.750633    0.354448    0.732678     0.005394
PD3351   PD        0.752513    0.390384    0.692060     0.005394
PD3352   PD        0.787070    0.355783    0.693055     0.005394
PD3353   PD        0.784247    0.390801    0.731948     0.005394
PD3354   PD        0.073722    0.429725    0.691183     0.005394
PD3355   PD        0.073733    0.465001    0.727944     0.005394
AU3356   AU        0.109193    0.427710    0.728531     0.007504
PD3357   PD        0.110289    0.464304    0.691743     0.005394
AU3358   AU        0.144583    0.429138    0.690260     0.007504
PD3359   PD        0.143536    0.465098    0.729496     0.005394
PD3360   PD        0.178699    0.427176    0.729299     0.005394
AU3361   AU        0.179150    0.463501    0.692498     0.007504
PD3362   PD        0.214511    0.427941    0.692613     0.005394
AU3363   AU        0.212261    0.461737    0.731651     0.007504
AU3364   AU        0.251241    0.428351    0.729837     0.007504
AU3365   AU        0.248727    0.465262    0.691814     0.007504
AU3366   AU        0.284899    0.429385    0.692041     0.007504
AU3367   AU        0.284870    0.463870    0.730949     0.007504
AU3368   AU        0.322171    0.428243    0.729586     0.007504
AU3369   AU        0.324337    0.465609    0.692084     0.007504
AU3370   AU        0.358996    0.426804    0.691634     0.007504
AU3371   AU        0.358208    0.462280    0.731456     0.007504
AU3372   AU        0.394446    0.428971    0.732438     0.007504
AU3373   AU        0.393427    0.464222    0.693608     0.007504
AU3374   AU        0.428972    0.425738    0.693978     0.007504
AU3375   AU        0.428038    0.466099    0.729049     0.007504
AU3376   AU        0.465833    0.428844    0.730235     0.007504
AU3377   AU        0.467912    0.465427    0.693158     0.007504
AU3378   AU        0.504064    0.427200    0.690019     0.007504
AU3379   AU        0.503751    0.462593    0.730731     0.007504
AU3380   AU        0.536173    0.427213    0.730882     0.007504
AU3381   AU        0.537748    0.464763    0.691545     0.007504
AU3382   AU        0.576799    0.427330    0.694451     0.007504
AU3383   AU        0.572163    0.464959    0.730118     0.007504
PD3384   PD        0.611267    0.429270    0.731938     0.005394
AU3385   AU        0.612106    0.465294    0.694932     0.007504
AU3386   AU        0.645682    0.428766    0.695332     0.007504
PD3387   PD        0.645903    0.464235    0.734048     0.005394
AU3388   AU        0.682816    0.425602    0.731909     0.007504
AU3389   AU        0.682490    0.465185    0.692468     0.007504
AU3390   AU        0.717097    0.428097    0.691160     0.007504
PD3391   PD        0.715431    0.464407    0.729112     0.005394
PD3392   PD        0.751078    0.428179    0.727201     0.005394
PD3393   PD        0.747714    0.467371    0.692309     0.005394
PD3394   PD        0.785950    0.425269    0.691591     0.005394
PD3395   PD        0.785490    0.463668    0.728561     0.005394
PD3396   PD        0.075176    0.500384    0.693453     0.005394
PD3397   PD        0.108302    0.499620    0.728091     0.005394
PD3398   PD        0.112492    0.535601    0.691921     0.005394
PD3399   PD        0.144438    0.499044    0.691622     0.005394
AU3400   AU        0.143808    0.536124    0.731021     0.007504
AU3401   AU        0.181525    0.500565    0.732251     0.007504
AU3402   AU        0.178852    0.533301    0.690287     0.007504
PD3403   PD        0.214914    0.501776    0.690966     0.005394
PD3404   PD        0.215040    0.534645    0.730177     0.005394
AU3405   AU        0.249401    0.499406    0.731221     0.007504
AU3406   AU        0.251855    0.535178    0.693513     0.007504
AU3407   AU        0.287649    0.499483    0.694070     0.007504
PD3408   PD        0.288722    0.536997    0.730502     0.005394
AU3409   AU        0.322342    0.502093    0.731466     0.007504
PD3410   PD        0.323172    0.538877    0.694046     0.005394
PD3411   PD        0.359452    0.500267    0.692590     0.005394
AU3412   AU        0.360472    0.535247    0.731131     0.007504
PD3413   PD        0.394368    0.501490    0.731319     0.005394
AU3414   AU        0.395514    0.536507    0.691994     0.007504
AU3415   AU        0.428875    0.501209    0.693344     0.007504
AU3416   AU        0.429396    0.535156    0.732528     0.007504
AU3417   AU        0.466571    0.497760    0.731410     0.007504
AU3418   AU        0.466722    0.535503    0.691252     0.007504
AU3419   AU        0.504077    0.501178    0.691566     0.007504
AU3420   AU        0.498037    0.536175    0.729871     0.007504
PD3421   PD        0.536663    0.500040    0.732715     0.005394
AU3422   AU        0.539330    0.535024    0.693017     0.007504
AU3423   AU        0.575642    0.497751    0.692543     0.007504
PD3424   PD        0.573652    0.537014    0.730701     0.005394
AU3425   AU        0.610062    0.501451    0.731988     0.007504
AU3426   AU        0.610160    0.535476    0.695323     0.007504
AU3427   AU        0.644841    0.502224    0.691328     0.007504
AU3428   AU        0.647423    0.535321    0.731449     0.007504
PD3429   PD        0.680137    0.501219    0.731053     0.005394
PD3430   PD        0.680352    0.538568    0.691448     0.005394
AU3431   AU        0.715525    0.503849    0.691959     0.007504
PD3432   PD        0.716514    0.536870    0.730947     0.005394
PD3433   PD        0.749579    0.499091    0.729355     0.005394
PD3434   PD        0.751276    0.536276    0.692266     0.005394
PD3435   PD        0.783306    0.498489    0.691181     0.005394
PD3436   PD        0.110818    0.571022    0.728510     0.005394
PD3437   PD        0.112016    0.605498    0.691612     0.005394
PD3438   PD        0.146859    0.570910    0.692905     0.005394
PD3439   PD        0.145762    0.606916    0.732024     0.005394
PD3440   PD        0.182049    0.568520    0.730246     0.005394
PD3441   PD        0.180388    0.604291    0.693963     0.005394
PD3442   PD        0.216900    0.570829    0.695725     0.005394
PD3443   PD        0.217886    0.608318    0.730872     0.005394
PD3444   PD        0.252973    0.571472    0.732175     0.005394
AU3445   AU        0.253214    0.608495    0.692753     0.007504
AU3446   AU        0.288341    0.572646    0.695353     0.007504
AU3447   AU        0.288374    0.609099    0.732107     0.007504
PD3448   PD        0.324441    0.572047    0.734220     0.005394
AU3449   AU        0.321530    0.609803    0.691957     0.007504
AU3450   AU        0.358419    0.571362    0.693474     0.007504
PD3451   PD        0.358717    0.607076    0.730788     0.005394
AU3452   AU        0.394867    0.572265    0.732647     0.007504
AU3453   AU        0.392324    0.608844    0.691126     0.007504
AU3454   AU        0.428779    0.573921    0.692918     0.007504
AU3455   AU        0.428351    0.608515    0.731294     0.007504
AU3456   AU        0.463323    0.570819    0.732072     0.007504
AU3457   AU        0.467893    0.608967    0.691386     0.007504
AU3458   AU        0.503935    0.571735    0.692872     0.007504
AU3459   AU        0.500990    0.608658    0.732582     0.007504
AU3460   AU        0.535738    0.570476    0.732871     0.007504
AU3461   AU        0.538531    0.609089    0.694322     0.007504
AU3462   AU        0.573334    0.571054    0.695233     0.007504
AU3463   AU        0.573444    0.608715    0.731482     0.007504
AU3464   AU        0.608841    0.572187    0.734140     0.007504
PD3465   PD        0.611184    0.607204    0.691482     0.005394
AU3466   AU        0.644558    0.571754    0.693617     0.007504
PD3467   PD        0.645295    0.607416    0.728787     0.005394
PD3468   PD        0.681167    0.573627    0.727621     0.005394
PD3469   PD        0.680111    0.607360    0.690073     0.005394
PD3470   PD        0.717172    0.572398    0.692749     0.005394
PD3471   PD        0.714209    0.607029    0.729540     0.005394
PD3472   PD        0.750314    0.572238    0.730296     0.005394
PD3473   PD        0.748868    0.607649    0.694458     0.005394
PD3474   PD        0.145191    0.641275    0.692790     0.005394
AU3475   AU        0.181260    0.641745    0.732649     0.007504
PD3476   PD        0.181768    0.674724    0.692901     0.005394
PD3477   PD        0.216777    0.640659    0.694328     0.005394
PD3478   PD        0.215954    0.677546    0.730399     0.005394
PD3479   PD        0.250784    0.643101    0.731815     0.005394
AU3480   AU        0.251463    0.679328    0.693519     0.007504
AU3481   AU        0.286446    0.645894    0.693534     0.007504
PD3482   PD        0.286026    0.679967    0.735566     0.005394
AU3483   AU        0.322035    0.645159    0.730622     0.007504
PD3484   PD        0.320633    0.681719    0.695726     0.005394
PD3485   PD        0.357928    0.644641    0.693522     0.005394
PD3486   PD        0.359920    0.677121    0.732872     0.005394
PD3487   PD        0.391644    0.641548    0.731145     0.005394
PD3488   PD        0.392465    0.677215    0.693209     0.005394
PD3489   PD        0.429702    0.643603    0.694154     0.005394
AU3490   AU        0.428216    0.676469    0.729459     0.007504
PD3491   PD        0.463207    0.643182    0.732728     0.005394
AU3492   AU        0.467334    0.679985    0.694567     0.007504
AU3493   AU        0.500804    0.646673    0.695925     0.007504
PD3494   PD        0.501538    0.679246    0.734093     0.005394
PD3495   PD        0.535494    0.643500    0.732698     0.005394
AU3496   AU        0.537746    0.676806    0.693807     0.007504
PD3497   PD        0.575731    0.643956    0.693693     0.005394
AU3498   AU        0.572272    0.675280    0.729781     0.007504
PD3499   PD        0.610075    0.642160    0.730682     0.005394
AU3500   AU        0.612232    0.680397    0.692345     0.007504
PD3501   PD        0.644932    0.643707    0.696970     0.005394
PD3502   PD        0.644503    0.678155    0.732246     0.005394
PD3503   PD        0.679969    0.642166    0.731745     0.005394
PD3504   PD        0.682247    0.678799    0.694516     0.005394
PD3505   PD        0.714318    0.643305    0.694653     0.005394
PD3506   PD        0.214402    0.713160    0.693995     0.005394
PD3507   PD        0.251991    0.712749    0.731159     0.005394
PD3508   PD        0.249310    0.748302    0.694553     0.005394
PD3509   PD        0.285029    0.715284    0.693688     0.005394
PD3510   PD        0.284893    0.750088    0.729756     0.005394
AU3511   AU        0.323461    0.716364    0.732773     0.007504
PD3512   PD        0.323199    0.752195    0.695676     0.005394
PD3513   PD        0.359074    0.711373    0.694770     0.005394
PD3514   PD        0.360299    0.748517    0.730496     0.005394
PD3515   PD        0.394523    0.713784    0.727467     0.005394
PD3516   PD        0.393983    0.749107    0.692097     0.005394
PD3517   PD        0.431884    0.711816    0.693215     0.005394
PD3518   PD        0.430414    0.745476    0.730319     0.005394
PD3519   PD        0.464442    0.712241    0.731370     0.005394
PD3520   PD        0.465276    0.747935    0.692857     0.005394
PD3521   PD        0.503990    0.712352    0.696962     0.005394
PD3522   PD        0.498702    0.747536    0.731265     0.005394
PD3523   PD        0.535872    0.714009    0.732391     0.005394
PD3524   PD        0.535367    0.752521    0.695472     0.005394
PD3525   PD        0.575333    0.712473    0.691550     0.005394
PD3526   PD        0.571723    0.745328    0.731193     0.005394
PD3527   PD        0.608764    0.714651    0.733451     0.005394
AU3528   AU        0.608964    0.746973    0.692170     0.007504
PD3529   PD        0.646810    0.716184    0.694075     0.005394
PD3530   PD        0.360150    0.784277    0.694402     0.005394
PD3531   PD        0.393932    0.781832    0.729984     0.005394
PD3532   PD        0.431297    0.782859    0.695780     0.005394
PD3533   PD        0.465402    0.781560    0.730649     0.005394
AU3534   AU        0.500422    0.785291    0.693969     0.007504
PD3535   PD        0.400822    0.108311    0.769842     0.005394
PD3536   PD        0.465587    0.106384    0.767965     0.005394
AU3537   AU        0.250000    0.177958    0.767969     0.007504
PD3538   PD        0.284428    0.143102    0.764898     0.005394
PD3539   PD        0.286100    0.183211    0.806440     0.005394
PD3540   PD        0.321750    0.176345    0.770479     0.005394
PD3541   PD        0.361660    0.141470    0.770672     0.005394
PD3542   PD        0.358983    0.179481    0.806300     0.005394
PD3543   PD        0.396639    0.143870    0.804928     0.005394
PD3544   PD        0.396879    0.177498    0.770701     0.005394
PD3545   PD        0.433074    0.143473    0.769343     0.005394
PD3546   PD        0.430811    0.178809    0.810336     0.005394
PD3547   PD        0.467667    0.142162    0.808529     0.005394
AU3548   AU        0.466229    0.178671    0.772428     0.007504
AU3549   AU        0.505228    0.140739    0.771152     0.007504
PD3550   PD        0.502521    0.179560    0.809708     0.005394
PD3551   PD        0.539802    0.178681    0.768178     0.005394
AU3552   AU        0.574181    0.141793    0.770406     0.007504
PD3553   PD        0.573714    0.180334    0.803801     0.005394
AU3554   AU        0.609006    0.180535    0.767169     0.007504
PD3555   PD        0.180600    0.251863    0.767390     0.005394
PD3556   PD        0.213968    0.215395    0.766560     0.005394
PD3557   PD        0.215244    0.249618    0.805601     0.005394
PD3558   PD        0.249079    0.213893    0.802406     0.005394
PD3559   PD        0.249753    0.248285    0.767626     0.005394
PD3560   PD        0.287781    0.215965    0.768545     0.005394
AU3561   AU        0.286825    0.249522    0.806280     0.007504
PD3562   PD        0.324131    0.214083    0.806605     0.005394
PD3563   PD        0.325534    0.247712    0.767271     0.005394
PD3564   PD        0.356693    0.210063    0.766274     0.005394
PD3565   PD        0.359063    0.247793    0.809071     0.005394
AU3566   AU        0.393822    0.213354    0.806139     0.007504
AU3567   AU        0.393954    0.247547    0.770033     0.007504
AU3568   AU        0.433028    0.212301    0.770165     0.007504
PD3569   PD        0.432154    0.247226    0.807941     0.005394
AU3570   AU        0.467185    0.215253    0.809186     0.007504
PD3571   PD        0.468192    0.250558    0.766332     0.005394
AU3572   AU        0.504672    0.213036    0.770240     0.007504
AU3573   AU        0.503443    0.250721    0.804946     0.007504
AU3574   AU        0.539952    0.215573    0.806481     0.007504
PD3575   PD        0.538152    0.250883    0.766526     0.005394
PD3576   PD        0.575830    0.215129    0.770012     0.005394
PD3577   PD        0.572733    0.250288    0.806344     0.005394
PD3578   PD        0.607811    0.216427    0.808358     0.005394
PD3579   PD        0.606390    0.249808    0.767864     0.005394
AU3580   AU        0.645695    0.213001    0.768610     0.007504
PD3581   PD        0.641583    0.252550    0.803991     0.005394
PD3582   PD        0.678870    0.248952    0.767702     0.005394
PD3583   PD        0.145016    0.289155    0.766778     0.005394
PD3584   PD        0.181189    0.286930    0.806170     0.005394
AU3585   AU        0.181968    0.321779    0.765217     0.007504
AU3586   AU        0.214922    0.285210    0.766546     0.007504
PD3587   PD        0.215795    0.322822    0.804005     0.005394
PD3588   PD        0.249742    0.286262    0.803466     0.005394
AU3589   AU        0.249431    0.323558    0.766908     0.007504
AU3590   AU        0.284606    0.284802    0.768654     0.007504
PD3591   PD        0.286487    0.321498    0.807730     0.005394
AU3592   AU        0.323252    0.284579    0.805536     0.007504
AU3593   AU        0.323034    0.320799    0.770146     0.007504
PD3594   PD        0.360335    0.283469    0.771906     0.005394
AU3595   AU        0.359694    0.320669    0.807157     0.007504
PD3596   PD        0.395369    0.281692    0.807634     0.005394
AU3597   AU        0.394676    0.318257    0.771125     0.007504
AU3598   AU        0.428517    0.283038    0.771568     0.007504
AU3599   AU        0.432784    0.321025    0.807230     0.007504
AU3600   AU        0.466821    0.284153    0.809330     0.007504
AU3601   AU        0.466026    0.317705    0.769450     0.007504
PD3602   PD        0.500927    0.285838    0.768157     0.005394
AU3603   AU        0.501272    0.323113    0.810511     0.007504
PD3604   PD        0.538688    0.286405    0.806398     0.005394
PD3605   PD        0.537272    0.320298    0.770754     0.005394
PD3606   PD        0.571650    0.285120    0.766913     0.005394
PD3607   PD        0.572817    0.321550    0.806412     0.005394
PD3608   PD        0.605495    0.285237    0.803760     0.005394
PD3609   PD        0.606179    0.320899    0.770259     0.005394
PD3610   PD        0.645165    0.283420    0.767949     0.005394
PD3611   PD        0.642184    0.317259    0.806563     0.005394
PD3612   PD        0.677669    0.286394    0.805678     0.005394
AU3613   AU        0.681178    0.318776    0.767410     0.007504
PD3614   PD        0.713395    0.284643    0.768803     0.005394
PD3615   PD        0.107806    0.395265    0.765600     0.005394
PD3616   PD        0.147552    0.357478    0.765953     0.005394
PD3617   PD        0.145667    0.391299    0.801852     0.005394
PD3618   PD        0.180351    0.358060    0.804764     0.005394
AU3619   AU        0.180676    0.392739    0.764654     0.007504
PD3620   PD        0.215180    0.358419    0.766971     0.005394
PD3621   PD        0.215046    0.395878    0.805644     0.005394
PD3622   PD        0.248656    0.356948    0.805458     0.005394
AU3623   AU        0.250649    0.394526    0.768288     0.007504
AU3624   AU        0.284353    0.357767    0.770697     0.007504
AU3625   AU        0.287493    0.392744    0.809275     0.007504
PD3626   PD        0.320131    0.358356    0.804156     0.005394
AU3627   AU        0.320454    0.392374    0.767333     0.007504
AU3628   AU        0.355707    0.356709    0.768041     0.007504
AU3629   AU        0.357566    0.391495    0.806784     0.007504
PD3630   PD        0.395858    0.357463    0.807006     0.005394
AU3631   AU        0.394986    0.393810    0.767331     0.007504
AU3632   AU        0.430849    0.356713    0.768544     0.007504
AU3633   AU        0.428315    0.394132    0.808270     0.007504
PD3634   PD        0.465157    0.356350    0.806385     0.005394
AU3635   AU        0.466381    0.393190    0.768606     0.007504
AU3636   AU        0.501945    0.356791    0.771691     0.007504
PD3637   PD        0.503789    0.395599    0.807478     0.005394
PD3638   PD        0.537170    0.355479    0.808011     0.005394
PD3639   PD        0.537391    0.395239    0.770319     0.005394
PD3640   PD        0.573212    0.356083    0.770151     0.005394
PD3641   PD        0.573196    0.390041    0.805404     0.005394
PD3642   PD        0.610231    0.357127    0.806802     0.005394
PD3643   PD        0.612687    0.392243    0.767200     0.005394
PD3644   PD        0.645679    0.354699    0.766313     0.005394
PD3645   PD        0.644490    0.391672    0.806319     0.005394
PD3646   PD        0.681377    0.352625    0.806439     0.005394
PD3647   PD        0.678572    0.390492    0.768681     0.005394
PD3648   PD        0.714754    0.354863    0.768716     0.005394
PD3649   PD        0.712934    0.391961    0.805630     0.005394
PD3650   PD        0.748977    0.390359    0.768766     0.005394
AU3651   AU        0.107148    0.465551    0.765583     0.007504
PD3652   PD        0.143646    0.428987    0.765472     0.005394
PD3653   PD        0.143161    0.463832    0.802921     0.005394
PD3654   PD        0.177220    0.426826    0.805464     0.005394
PD3655   PD        0.180146    0.462095    0.767890     0.005394
PD3656   PD        0.214389    0.429014    0.768312     0.005394
PD3657   PD        0.216937    0.462792    0.806462     0.005394
AU3658   AU        0.253274    0.428492    0.807108     0.007504
AU3659   AU        0.253425    0.462974    0.771126     0.007504
PD3660   PD        0.286994    0.429034    0.768619     0.005394
PD3661   PD        0.289983    0.463049    0.806978     0.005394
AU3662   AU        0.323530    0.428413    0.807210     0.007504
AU3663   AU        0.320611    0.464397    0.768201     0.007504
AU3664   AU        0.358669    0.430609    0.768988     0.007504
AU3665   AU        0.358601    0.465701    0.803584     0.007504
PD3666   PD        0.393683    0.426790    0.808090     0.005394
AU3667   AU        0.395383    0.465129    0.768619     0.007504
AU3668   AU        0.428889    0.430018    0.770259     0.007504
AU3669   AU        0.428006    0.464490    0.808321     0.007504
AU3670   AU        0.466910    0.429168    0.807760     0.007504
AU3671   AU        0.466787    0.465027    0.769455     0.007504
PD3672   PD        0.502035    0.432268    0.771884     0.005394
AU3673   AU        0.504323    0.466743    0.809589     0.007504
AU3674   AU        0.537358    0.430818    0.806558     0.007504
PD3675   PD        0.538727    0.465483    0.768389     0.005394
AU3676   AU        0.576781    0.428031    0.766900     0.007504
AU3677   AU        0.574812    0.465435    0.806184     0.007504
PD3678   PD        0.609793    0.426700    0.806931     0.005394
PD3679   PD        0.609264    0.463799    0.768565     0.005394
PD3680   PD        0.643763    0.429815    0.769477     0.005394
PD3681   PD        0.643057    0.462767    0.807252     0.005394
PD3682   PD        0.679621    0.427888    0.804608     0.005394
AU3683   AU        0.680658    0.464141    0.769185     0.007504
PD3684   PD        0.719363    0.425167    0.768350     0.005394
PD3685   PD        0.715571    0.461460    0.806203     0.005394
PD3686   PD        0.750510    0.462365    0.767310     0.005394
PD3687   PD        0.143605    0.500727    0.766468     0.005394
PD3688   PD        0.179739    0.496044    0.805828     0.005394
PD3689   PD        0.182751    0.534911    0.769899     0.005394
PD3690   PD        0.217536    0.501274    0.770905     0.005394
PD3691   PD        0.216298    0.536609    0.806602     0.005394
PD3692   PD        0.255154    0.500222    0.808561     0.005394
AU3693   AU        0.252441    0.536088    0.767332     0.007504
PD3694   PD        0.286645    0.500883    0.772128     0.005394
PD3695   PD        0.289563    0.537131    0.807545     0.005394
PD3696   PD        0.321325    0.497748    0.806909     0.005394
AU3697   AU        0.324539    0.533644    0.771279     0.007504
AU3698   AU        0.359761    0.498728    0.768444     0.007504
AU3699   AU        0.357383    0.536921    0.807244     0.007504
AU3700   AU        0.395134    0.499363    0.806943     0.007504
AU3701   AU        0.394603    0.534257    0.771476     0.007504
AU3702   AU        0.430312    0.501323    0.767702     0.007504
PD3703   PD        0.430018    0.537130    0.807960     0.005394
PD3704   PD        0.463664    0.499379    0.808716     0.005394
PD3705   PD        0.465677    0.536563    0.769837     0.005394
AU3706   AU        0.502881    0.498897    0.769141     0.007504
AU3707   AU        0.499715    0.535995    0.807450     0.007504
PD3708   PD        0.535411    0.499928    0.808474     0.005394
AU3709   AU        0.535848    0.533545    0.771384     0.007504
PD3710   PD        0.575216    0.500461    0.768375     0.005394
PD3711   PD        0.572564    0.534129    0.806008     0.005394
PD3712   PD        0.608296    0.498661    0.806759     0.005394
PD3713   PD        0.610339    0.536283    0.767773     0.005394
AU3714   AU        0.643563    0.499458    0.770151     0.007504
PD3715   PD        0.644575    0.533370    0.806218     0.005394
PD3716   PD        0.680839    0.497894    0.807108     0.005394
AU3717   AU        0.681807    0.533598    0.771185     0.007504
PD3718   PD        0.715808    0.499925    0.767369     0.005394
AU3719   AU        0.145914    0.570584    0.769686     0.007504
PD3720   PD        0.182366    0.572881    0.808996     0.005394
PD3721   PD        0.183398    0.603896    0.767142     0.005394
AU3722   AU        0.218229    0.570503    0.766848     0.007504
PD3723   PD        0.216784    0.606410    0.805055     0.005394
PD3724   PD        0.253529    0.571373    0.806090     0.005394
AU3725   AU        0.253257    0.608715    0.768803     0.007504
AU3726   AU        0.288082    0.570869    0.769390     0.007504
PD3727   PD        0.288658    0.605864    0.808146     0.005394
PD3728   PD        0.324128    0.572259    0.807249     0.005394
AU3729   AU        0.323180    0.607807    0.768765     0.007504
PD3730   PD        0.360556    0.571880    0.769757     0.005394
AU3731   AU        0.359235    0.606089    0.807140     0.007504
AU3732   AU        0.394368    0.571639    0.808256     0.007504
PD3733   PD        0.396067    0.607565    0.769027     0.005394
PD3734   PD        0.429241    0.570720    0.771781     0.005394
PD3735   PD        0.430770    0.607871    0.807235     0.005394
PD3736   PD        0.466230    0.572763    0.807698     0.005394
PD3737   PD        0.463056    0.607096    0.771915     0.005394
AU3738   AU        0.500263    0.570739    0.769436     0.007504
PD3739   PD        0.500632    0.607659    0.805843     0.005394
PD3740   PD        0.535956    0.570941    0.806241     0.005394
AU3741   AU        0.537559    0.607010    0.768986     0.007504
PD3742   PD        0.574525    0.572041    0.768025     0.005394
PD3743   PD        0.571706    0.605822    0.804834     0.005394
AU3744   AU        0.609375    0.569323    0.803454     0.007504
PD3745   PD        0.608536    0.607852    0.768551     0.005394
PD3746   PD        0.646539    0.571645    0.765946     0.005394
PD3747   PD        0.643666    0.607483    0.806782     0.005394
PD3748   PD        0.680685    0.569257    0.805119     0.005394
PD3749   PD        0.680962    0.606419    0.767565     0.005394
PD3750   PD        0.714204    0.573573    0.768982     0.005394
PD3751   PD        0.217471    0.642727    0.769626     0.005394
AU3752   AU        0.251776    0.644959    0.808035     0.007504
PD3753   PD        0.250156    0.680344    0.769096     0.005394
PD3754   PD        0.289566    0.644518    0.770424     0.005394
PD3755   PD        0.287692    0.680494    0.806111     0.005394
AU3756   AU        0.324692    0.646223    0.813257     0.007504
PD3757   PD        0.323414    0.679824    0.769473     0.005394
PD3758   PD        0.356884    0.644878    0.770884     0.005394
PD3759   PD        0.359279    0.680959    0.809733     0.005394
PD3760   PD        0.392993    0.642622    0.806134     0.005394
PD3761   PD        0.394113    0.678385    0.768635     0.005394
PD3762   PD        0.427262    0.642694    0.771383     0.005394
PD3763   PD        0.429042    0.676216    0.806320     0.005394
PD3764   PD        0.465764    0.642709    0.807439     0.005394
AU3765   AU        0.462548    0.677574    0.769054     0.007504
PD3766   PD        0.498210    0.641328    0.770295     0.005394
PD3767   PD        0.501346    0.677613    0.805924     0.005394
PD3768   PD        0.537860    0.641817    0.807345     0.005394
PD3769   PD        0.535480    0.677036    0.769783     0.005394
PD3770   PD        0.573839    0.641654    0.769229     0.005394
PD3771   PD        0.571419    0.676418    0.805763     0.005394
PD3772   PD        0.608485    0.641964    0.803713     0.005394
PD3773   PD        0.606817    0.676830    0.768149     0.005394
PD3774   PD        0.642819    0.641538    0.767314     0.005394
PD3775   PD        0.286170    0.717215    0.771313     0.005394
PD3776   PD        0.360083    0.713802    0.767945     0.005394
PD3777   PD        0.396410    0.712789    0.806813     0.005394
PD3778   PD        0.393085    0.746930    0.768104     0.005394
PD3779   PD        0.428568    0.712994    0.766992     0.005394
AU3780   AU        0.464570    0.711483    0.807692     0.007504
PD3781   PD        0.464272    0.745985    0.771427     0.005394
PD3782   PD        0.500177    0.714392    0.769660     0.005394
PD3783   PD        0.571414    0.709750    0.767846     0.005394
PD3784   PD        0.392066    0.178870    0.843358     0.005394
PD3785   PD        0.466495    0.179633    0.845886     0.005394
PD3786   PD        0.250395    0.250788    0.841786     0.005394
PD3787   PD        0.322439    0.248552    0.844416     0.005394
PD3788   PD        0.359492    0.214106    0.847362     0.005394
PD3789   PD        0.358815    0.252018    0.881100     0.005394
PD3790   PD        0.396382    0.250364    0.846694     0.005394
AU3791   AU        0.426088    0.213098    0.849659     0.007504
PD3792   PD        0.430092    0.252596    0.883900     0.005394
PD3793   PD        0.466614    0.250312    0.845695     0.005394
PD3794   PD        0.502528    0.216455    0.845896     0.005394
PD3795   PD        0.504842    0.252014    0.884626     0.005394
PD3796   PD        0.537581    0.250699    0.844349     0.005394
PD3797   PD        0.608799    0.251933    0.844081     0.005394
PD3798   PD        0.250681    0.321079    0.842332     0.005394
PD3799   PD        0.285816    0.285331    0.842513     0.005394
PD3800   PD        0.287689    0.320441    0.879877     0.005394
PD3801   PD        0.322598    0.283661    0.880858     0.005394
PD3802   PD        0.322941    0.320111    0.839723     0.005394
PD3803   PD        0.362031    0.283422    0.843605     0.005394
PD3804   PD        0.358148    0.320193    0.880520     0.005394
AU3805   AU        0.392567    0.288005    0.883105     0.007504
PD3806   PD        0.396218    0.323495    0.842588     0.005394
PD3807   PD        0.430552    0.287841    0.848065     0.005394
PD3808   PD        0.429871    0.324375    0.882601     0.005394
AU3809   AU        0.469359    0.286316    0.882286     0.007504
PD3810   PD        0.466980    0.322151    0.846107     0.005394
PD3811   PD        0.503836    0.284219    0.846054     0.005394
PD3812   PD        0.502478    0.322920    0.879552     0.005394
AU3813   AU        0.538127    0.287779    0.883392     0.007504
PD3814   PD        0.538886    0.319450    0.844205     0.005394
PD3815   PD        0.574219    0.285403    0.843150     0.005394
PD3816   PD        0.572896    0.320356    0.881184     0.005394
PD3817   PD        0.608784    0.318721    0.844691     0.005394
PD3818   PD        0.178533    0.391318    0.841509     0.005394
PD3819   PD        0.215069    0.360449    0.843862     0.005394
PD3820   PD        0.251612    0.356347    0.879163     0.005394
PD3821   PD        0.249534    0.393876    0.843926     0.005394
PD3822   PD        0.286340    0.356947    0.844335     0.005394
PD3823   PD        0.287117    0.390472    0.880802     0.005394
PD3824   PD        0.321992    0.353687    0.877843     0.005394
PD3825   PD        0.322525    0.390069    0.845088     0.005394
PD3826   PD        0.358457    0.355599    0.844334     0.005394
PD3827   PD        0.357282    0.388876    0.884825     0.005394
AU3828   AU        0.392021    0.355087    0.883155     0.007504
AU3829   AU        0.395979    0.389930    0.847174     0.007504
PD3830   PD        0.433436    0.357503    0.845379     0.005394
AU3831   AU        0.431432    0.393736    0.883370     0.007504
PD3832   PD        0.468080    0.356854    0.881855     0.005394
AU3833   AU        0.465850    0.395948    0.844809     0.007504
PD3834   PD        0.500914    0.360584    0.843217     0.005394
PD3835   PD        0.500358    0.393694    0.881839     0.005394
PD3836   PD        0.536592    0.357275    0.878168     0.005394
PD3837   PD        0.536911    0.392390    0.840687     0.005394
PD3838   PD        0.570649    0.354617    0.841807     0.005394
PD3839   PD        0.571676    0.390482    0.879655     0.005394
PD3840   PD        0.606044    0.356884    0.881872     0.005394
PD3841   PD        0.607910    0.392174    0.844276     0.005394
AU3842   AU        0.642620    0.354853    0.844746     0.007504
PD3843   PD        0.678524    0.389325    0.841938     0.005394
PD3844   PD        0.177214    0.461173    0.840254     0.005394
AU3845   AU        0.215307    0.428902    0.842471     0.007504
PD3846   PD        0.251063    0.427975    0.881510     0.005394
PD3847   PD        0.251450    0.465412    0.843330     0.005394
PD3848   PD        0.286403    0.428439    0.846502     0.005394
PD3849   PD        0.283453    0.463523    0.879880     0.005394
PD3850   PD        0.320287    0.426156    0.882316     0.005394
PD3851   PD        0.323392    0.463133    0.845259     0.005394
AU3852   AU        0.357089    0.425944    0.843269     0.007504
PD3853   PD        0.357690    0.459508    0.882506     0.005394
PD3854   PD        0.391772    0.425160    0.884358     0.005394
PD3855   PD        0.393934    0.462425    0.846140     0.005394
PD3856   PD        0.430151    0.428496    0.845829     0.005394
AU3857   AU        0.430094    0.462220    0.883854     0.007504
PD3858   PD        0.465136    0.429374    0.881815     0.005394
AU3859   AU        0.466813    0.465076    0.845640     0.007504
PD3860   PD        0.501505    0.428571    0.848209     0.005394
PD3861   PD        0.501943    0.463334    0.885082     0.005394
PD3862   PD        0.538811    0.426889    0.879313     0.005394
PD3863   PD        0.536689    0.464283    0.847856     0.005394
PD3864   PD        0.571954    0.430360    0.842319     0.005394
AU3865   AU        0.572943    0.465829    0.885988     0.007504
PD3866   PD        0.606157    0.427176    0.880808     0.005394
PD3867   PD        0.607137    0.462565    0.846024     0.005394
PD3868   PD        0.645242    0.426004    0.842273     0.005394
PD3869   PD        0.679220    0.461615    0.841874     0.005394
PD3870   PD        0.214041    0.497227    0.842335     0.005394
PD3871   PD        0.252179    0.502058    0.878760     0.005394
PD3872   PD        0.251833    0.537649    0.843420     0.005394
PD3873   PD        0.288468    0.501133    0.844967     0.005394
PD3874   PD        0.286591    0.538890    0.882119     0.005394
PD3875   PD        0.324583    0.495794    0.882264     0.005394
AU3876   AU        0.323775    0.534142    0.844860     0.007504
AU3877   AU        0.357783    0.499223    0.844616     0.007504
PD3878   PD        0.357465    0.534012    0.884451     0.005394
PD3879   PD        0.393121    0.499898    0.881557     0.005394
PD3880   PD        0.392594    0.534903    0.846873     0.005394
PD3881   PD        0.430456    0.500097    0.845221     0.005394
PD3882   PD        0.428789    0.534347    0.882082     0.005394
PD3883   PD        0.468115    0.499800    0.884833     0.005394
PD3884   PD        0.465955    0.537625    0.848445     0.005394
PD3885   PD        0.502629    0.502528    0.844669     0.005394
PD3886   PD        0.501046    0.535490    0.886238     0.005394
AU3887   AU        0.535702    0.499656    0.883793     0.007504
PD3888   PD        0.537703    0.536066    0.845752     0.005394
PD3889   PD        0.572572    0.500913    0.845079     0.005394
PD3890   PD        0.574531    0.535791    0.882330     0.005394
PD3891   PD        0.611365    0.499496    0.882091     0.005394
PD3892   PD        0.607648    0.535232    0.842993     0.005394
PD3893   PD        0.648003    0.498836    0.844413     0.005394
PD3894   PD        0.255776    0.607314    0.843153     0.005394
PD3895   PD        0.287879    0.571906    0.844484     0.005394
PD3896   PD        0.323187    0.575104    0.884669     0.005394
PD3897   PD        0.327066    0.606757    0.845441     0.005394
PD3898   PD        0.358964    0.569734    0.846752     0.005394
PD3899   PD        0.360305    0.605543    0.884015     0.005394
PD3900   PD        0.396267    0.570886    0.881662     0.005394
PD3901   PD        0.395676    0.604149    0.843528     0.005394
AU3902   AU        0.430570    0.570551    0.845786     0.007504
PD3903   PD        0.430354    0.605908    0.883119     0.005394
AU3904   AU        0.464054    0.570817    0.886400     0.007504
AU3905   AU        0.467884    0.607126    0.844175     0.007504
PD3906   PD        0.501891    0.571746    0.846021     0.005394
PD3907   PD        0.501488    0.606470    0.881682     0.005394
PD3908   PD        0.536653    0.572376    0.884547     0.005394
PD3909   PD        0.537655    0.607146    0.842092     0.005394
PD3910   PD        0.572005    0.570170    0.841440     0.005394
PD3911   PD        0.608705    0.601846    0.842244     0.005394
PD3912   PD        0.362968    0.640898    0.848531     0.005394
PD3913   PD        0.397288    0.677983    0.844257     0.005394
PD3914   PD        0.427160    0.641453    0.842355     0.005394
PD3915   PD        0.466055    0.676242    0.846416     0.005394
PD3916   PD        0.502706    0.643364    0.843064     0.005394
PD3917   PD        0.396510    0.391177    0.921771     0.005394
PD3918   PD        0.431906    0.357159    0.918980     0.005394
PD3919   PD        0.466844    0.392509    0.919683     0.005394
PD3920   PD        0.358199    0.428034    0.920709     0.005394
PD3921   PD        0.393422    0.462910    0.919274     0.005394
PD3922   PD        0.429730    0.426764    0.918578     0.005394
PD3923   PD        0.465724    0.464154    0.920050     0.005394
PD3924   PD        0.501262    0.427912    0.916850     0.005394
PD3925   PD        0.429713    0.499064    0.915709     0.005394
