data_00001
_audit_creation_method   'DISCUS'

_data_chemical_name_common 'Au.cell: Pearson 85'

_cell_length_a             61.1835
_cell_length_b             61.1835
_cell_length_c             61.1835
_cell_angle_alpha     90.0000
_cell_angle_beta      90.0000
_cell_angle_gamma     90.0000

_symmetry_space_group_name_H-M   'P1              '

loop_
_atom_site_label
_atom_site_symbol
_atom_site_fract_x
_atom_site_fract_y
_atom_site_fract_z
_atom_site_u_iso_or_equiv
PD1   PD        0.335720    0.236827    0.069284     0.005394
PD2   PD        0.439324    0.233348    0.043030     0.005394
AU3   AU        0.504629    0.275399    0.070630     0.007504
PD4   PD        0.326763    0.340463    0.054221     0.005394
PD5   PD        0.306279    0.306844    0.033963     0.005394
PD6   PD        0.362944    0.338361    0.068699     0.005394
AU7   AU        0.403059    0.305862    0.069608     0.007504
PD8   PD        0.435397    0.339097    0.071422     0.005394
PD9   PD        0.439588    0.264087    0.073792     0.005394
PD10   PD        0.500399    0.338205    0.071278     0.005394
PD11   PD        0.536687    0.295330    0.067815     0.005394
PD12   PD        0.570576    0.299039    0.039397     0.005394
PD13   PD        0.265683    0.373741    0.071131     0.005394
PD14   PD        0.300798    0.407119    0.067007     0.005394
PD15   PD        0.338420    0.402149    0.032830     0.005394
PD16   PD        0.370753    0.407565    0.068530     0.005394
PD17   PD        0.399848    0.372620    0.069385     0.005394
AU18   AU        0.402657    0.407795    0.035413     0.007504
PD19   PD        0.399341    0.308951    0.000667     0.005394
PD20   PD        0.434496    0.406174    0.068212     0.005394
PD21   PD        0.470052    0.374149    0.071113     0.005394
AU22   AU        0.467600    0.407232    0.036484     0.007504
PD23   PD        0.503418    0.404475    0.070037     0.005394
PD24   PD        0.538868    0.373938    0.070809     0.005394
AU25   AU        0.572516    0.408416    0.069478     0.007504
PD26   PD        0.568834    0.374514    0.039249     0.005394
PD27   PD        0.270402    0.440587    0.069208     0.005394
PD28   PD        0.303710    0.473711    0.067670     0.005394
AU29   AU        0.335594    0.437817    0.071154     0.007504
PD30   PD        0.369954    0.439776    0.036837     0.005394
AU31   AU        0.369399    0.472204    0.070464     0.007504
PD32   PD        0.403953    0.438540    0.071465     0.005394
PD33   PD        0.401749    0.469272    0.040812     0.005394
PD34   PD        0.406913    0.439310    0.002894     0.005394
AU35   AU        0.436683    0.472240    0.070022     0.007504
AU36   AU        0.467708    0.441110    0.069530     0.007504
PD37   PD        0.470043    0.476948    0.035009     0.005394
PD38   PD        0.503039    0.438179    0.038375     0.005394
PD39   PD        0.503077    0.472726    0.068721     0.005394
AU40   AU        0.535581    0.437989    0.069110     0.007504
AU41   AU        0.568955    0.470243    0.069448     0.007504
PD42   PD        0.570619    0.437599    0.034695     0.005394
PD43   PD        0.263356    0.508044    0.072808     0.005394
AU44   AU        0.303630    0.536275    0.070081     0.007504
AU45   AU        0.339115    0.505106    0.068318     0.007504
AU46   AU        0.370929    0.537853    0.070562     0.007504
AU47   AU        0.404061    0.503914    0.071598     0.007504
PD48   PD        0.438905    0.507152    0.034289     0.005394
AU49   AU        0.435201    0.537682    0.069998     0.007504
AU50   AU        0.470915    0.505291    0.069186     0.007504
PD51   PD        0.503218    0.537633    0.071830     0.005394
PD52   PD        0.538377    0.503093    0.068465     0.005394
AU53   AU        0.568319    0.535965    0.072357     0.007504
AU54   AU        0.603284    0.500552    0.071243     0.007504
AU55   AU        0.338292    0.568551    0.071954     0.007504
PD56   PD        0.370505    0.602185    0.070629     0.005394
PD57   PD        0.403566    0.570815    0.071243     0.005394
PD58   PD        0.402097    0.536926    0.037389     0.005394
AU59   AU        0.469229    0.570992    0.073354     0.007504
AU60   AU        0.504179    0.603850    0.071748     0.007504
AU61   AU        0.536954    0.570239    0.070264     0.007504
PD62   PD        0.300914    0.202551    0.136116     0.005394
PD63   PD        0.367216    0.202201    0.136572     0.005394
PD64   PD        0.402643    0.169002    0.068487     0.005394
PD65   PD        0.403229    0.201476    0.101729     0.005394
AU66   AU        0.435600    0.207042    0.133996     0.007504
PD67   PD        0.435832    0.172023    0.102426     0.005394
PD68   PD        0.466848    0.175255    0.065897     0.005394
AU69   AU        0.503570    0.204185    0.136443     0.007504
PD70   PD        0.571367    0.206782    0.132454     0.005394
PD71   PD        0.235326    0.270681    0.139582     0.005394
PD72   PD        0.271552    0.240998    0.135266     0.005394
PD73   PD        0.262519    0.303237    0.071425     0.005394
PD74   PD        0.302366    0.274689    0.135411     0.005394
PD75   PD        0.333006    0.236873    0.137434     0.005394
PD76   PD        0.337560    0.273792    0.104083     0.005394
PD77   PD        0.368006    0.233976    0.103433     0.005394
PD78   PD        0.370318    0.271111    0.137410     0.005394
AU79   AU        0.401435    0.241343    0.136667     0.007504
AU80   AU        0.402085    0.271226    0.101900     0.007504
PD81   PD        0.437314    0.233068    0.106314     0.005394
PD82   PD        0.435965    0.273083    0.135200     0.005394
AU83   AU        0.469453    0.238840    0.138660     0.007504
PD84   PD        0.471617    0.273047    0.104619     0.005394
PD85   PD        0.507091    0.240066    0.101339     0.005394
PD86   PD        0.502562    0.269670    0.137904     0.005394
PD87   PD        0.535477    0.238825    0.137243     0.005394
AU88   AU        0.533504    0.269409    0.105356     0.007504
PD89   PD        0.567893    0.273886    0.136580     0.005394
AU90   AU        0.599449    0.240133    0.136616     0.007504
PD91   PD        0.635136    0.234489    0.101422     0.005394
PD92   PD        0.634101    0.269534    0.134900     0.005394
PD93   PD        0.138069    0.303001    0.135917     0.005394
PD94   PD        0.203899    0.338107    0.108750     0.005394
PD95   PD        0.235170    0.299998    0.101946     0.005394
PD96   PD        0.265550    0.337141    0.108277     0.005394
AU97   AU        0.298583    0.305790    0.103505     0.007504
AU98   AU        0.301159    0.338140    0.136206     0.007504
AU99   AU        0.335901    0.306128    0.137595     0.007504
PD100   PD        0.330642    0.338783    0.101690     0.005394
PD101   PD        0.371894    0.303833    0.104209     0.005394
AU102   AU        0.367437    0.338663    0.133958     0.007504
PD103   PD        0.402847    0.303861    0.135182     0.005394
PD104   PD        0.402573    0.336699    0.104288     0.005394
AU105   AU        0.438133    0.303783    0.102866     0.007504
PD106   PD        0.436231    0.336588    0.136524     0.005394
AU107   AU        0.468938    0.304312    0.139717     0.007504
AU108   AU        0.469846    0.336911    0.105150     0.007504
PD109   PD        0.501769    0.304037    0.106807     0.005394
PD110   PD        0.505532    0.338529    0.137070     0.005394
AU111   AU        0.535027    0.305214    0.138417     0.007504
PD112   PD        0.536945    0.339730    0.101561     0.005394
PD113   PD        0.568360    0.308084    0.103652     0.005394
PD114   PD        0.569530    0.340378    0.137230     0.005394
PD115   PD        0.603961    0.302381    0.135196     0.005394
PD116   PD        0.601017    0.341813    0.100843     0.005394
PD117   PD        0.635388    0.310417    0.104608     0.005394
AU118   AU        0.667648    0.302543    0.137181     0.007504
AU119   AU        0.168946    0.404609    0.137159     0.007504
PD120   PD        0.203680    0.369594    0.138639     0.005394
AU121   AU        0.203679    0.405271    0.105473     0.007504
AU122   AU        0.234961    0.371051    0.104696     0.007504
AU123   AU        0.236183    0.404334    0.138514     0.007504
PD124   PD        0.267135    0.371962    0.137614     0.005394
PD125   PD        0.265857    0.407394    0.103301     0.005394
AU126   AU        0.300155    0.374198    0.105542     0.007504
AU127   AU        0.300343    0.405113    0.137636     0.007504
PD128   PD        0.335037    0.372566    0.138772     0.005394
PD129   PD        0.334947    0.403683    0.103493     0.005394
PD130   PD        0.366048    0.371979    0.103676     0.005394
PD131   PD        0.368381    0.404634    0.141646     0.005394
PD132   PD        0.402453    0.367670    0.137114     0.005394
AU133   AU        0.403571    0.405066    0.104117     0.007504
PD134   PD        0.437255    0.375243    0.101344     0.005394
PD135   PD        0.436302    0.404819    0.134748     0.005394
PD136   PD        0.471793    0.371437    0.134998     0.005394
AU137   AU        0.471197    0.409057    0.104050     0.007504
PD138   PD        0.503026    0.371296    0.104598     0.005394
AU139   AU        0.504074    0.405765    0.137163     0.007504
PD140   PD        0.538950    0.370536    0.135566     0.005394
PD141   PD        0.535573    0.407490    0.102436     0.005394
PD142   PD        0.567868    0.373562    0.104882     0.005394
PD143   PD        0.569565    0.404098    0.138819     0.005394
AU144   AU        0.600900    0.372680    0.135484     0.007504
AU145   AU        0.603061    0.405543    0.102997     0.007504
PD146   PD        0.637692    0.375647    0.104924     0.005394
PD147   PD        0.637988    0.405923    0.139278     0.005394
AU148   AU        0.669847    0.373046    0.138365     0.007504
AU149   AU        0.670978    0.408948    0.104721     0.007504
PD150   PD        0.700564    0.408139    0.138060     0.005394
PD151   PD        0.172046    0.473076    0.135987     0.005394
PD152   PD        0.203514    0.438215    0.135618     0.005394
AU153   AU        0.203850    0.473647    0.102525     0.007504
AU154   AU        0.235933    0.439812    0.104386     0.007504
AU155   AU        0.234633    0.471145    0.137854     0.007504
AU156   AU        0.269153    0.436679    0.137682     0.007504
AU157   AU        0.268264    0.472807    0.103338     0.007504
PD158   PD        0.301792    0.437122    0.103646     0.005394
AU159   AU        0.300511    0.470921    0.134605     0.007504
PD160   PD        0.335855    0.438054    0.136423     0.005394
PD161   PD        0.333344    0.472099    0.100280     0.005394
PD162   PD        0.368128    0.441709    0.101739     0.005394
PD163   PD        0.369247    0.472860    0.135732     0.005394
PD164   PD        0.406121    0.440692    0.138512     0.005394
AU165   AU        0.403559    0.470644    0.102353     0.007504
AU166   AU        0.437849    0.438397    0.103805     0.007504
PD167   PD        0.438954    0.473630    0.136595     0.005394
AU168   AU        0.469613    0.439276    0.136939     0.007504
PD169   PD        0.469063    0.474891    0.102715     0.005394
AU170   AU        0.503890    0.439022    0.101911     0.007504
AU171   AU        0.504143    0.472131    0.135050     0.007504
AU172   AU        0.537500    0.439521    0.136627     0.007504
AU173   AU        0.537102    0.473095    0.103700     0.007504
AU174   AU        0.568908    0.438269    0.105659     0.007504
PD175   PD        0.569290    0.471377    0.136743     0.005394
AU176   AU        0.603770    0.440978    0.138263     0.007504
PD177   PD        0.603686    0.470638    0.105674     0.005394
PD178   PD        0.636630    0.440275    0.104712     0.005394
PD179   PD        0.636745    0.472844    0.138812     0.005394
PD180   PD        0.669157    0.440265    0.136935     0.005394
PD181   PD        0.664869    0.476053    0.102285     0.005394
PD182   PD        0.704138    0.475374    0.136841     0.005394
PD183   PD        0.202056    0.505242    0.138067     0.005394
PD184   PD        0.202560    0.503149    0.068443     0.005394
PD185   PD        0.203169    0.532427    0.101424     0.005394
PD186   PD        0.265633    0.504470    0.137787     0.005394
AU187   AU        0.272804    0.537786    0.103596     0.007504
PD188   PD        0.303417    0.504570    0.102946     0.005394
PD189   PD        0.302619    0.535680    0.136081     0.005394
AU190   AU        0.336484    0.503837    0.136616     0.007504
AU191   AU        0.337096    0.535380    0.103661     0.007504
AU192   AU        0.369429    0.503577    0.102325     0.007504
AU193   AU        0.369355    0.538053    0.136948     0.007504
PD194   PD        0.402506    0.504395    0.137131     0.005394
PD195   PD        0.403024    0.535928    0.105567     0.005394
AU196   AU        0.435731    0.502757    0.103430     0.007504
AU197   AU        0.436813    0.538992    0.138388     0.007504
PD198   PD        0.470666    0.505539    0.137646     0.005394
AU199   AU        0.469005    0.534423    0.102784     0.007504
AU200   AU        0.503876    0.504280    0.102172     0.007504
PD201   PD        0.504519    0.537609    0.135246     0.005394
PD202   PD        0.535085    0.505257    0.137306     0.005394
PD203   PD        0.533995    0.537009    0.104832     0.005394
AU204   AU        0.571151    0.503265    0.104559     0.007504
AU205   AU        0.568122    0.537804    0.136192     0.007504
AU206   AU        0.601782    0.504731    0.136940     0.007504
AU207   AU        0.600657    0.538397    0.103585     0.007504
PD208   PD        0.630092    0.539957    0.066983     0.005394
AU209   AU        0.633468    0.537328    0.135718     0.007504
PD210   PD        0.664862    0.505770    0.139242     0.005394
PD211   PD        0.205432    0.572478    0.131853     0.005394
PD212   PD        0.237680    0.606827    0.133964     0.005394
AU213   AU        0.271337    0.575969    0.136582     0.007504
PD214   PD        0.271324    0.570177    0.072313     0.005394
AU215   AU        0.305657    0.569379    0.104638     0.007504
PD216   PD        0.305050    0.605738    0.137503     0.005394
PD217   PD        0.337947    0.568358    0.134513     0.005394
AU218   AU        0.335604    0.603264    0.103186     0.007504
AU219   AU        0.371296    0.570900    0.104327     0.007504
AU220   AU        0.370246    0.603807    0.136734     0.007504
AU221   AU        0.402325    0.570146    0.135417     0.007504
PD222   PD        0.402628    0.604895    0.104464     0.005394
PD223   PD        0.436343    0.569897    0.104097     0.005394
PD224   PD        0.437859    0.602089    0.137279     0.005394
AU225   AU        0.469303    0.567880    0.136972     0.007504
AU226   AU        0.470360    0.604500    0.103683     0.007504
AU227   AU        0.502122    0.569725    0.103930     0.007504
AU228   AU        0.503357    0.604159    0.137806     0.007504
PD229   PD        0.534248    0.570611    0.138822     0.005394
AU230   AU        0.534690    0.603106    0.106002     0.007504
AU231   AU        0.566621    0.570484    0.104497     0.007504
AU232   AU        0.568970    0.603765    0.137944     0.007504
AU233   AU        0.600554    0.569157    0.138346     0.007504
PD234   PD        0.601184    0.600342    0.102352     0.005394
PD235   PD        0.634686    0.603054    0.136945     0.005394
AU236   AU        0.668389    0.572272    0.135507     0.007504
AU237   AU        0.272853    0.635188    0.137087     0.007504
PD238   PD        0.307343    0.667803    0.139034     0.005394
PD239   PD        0.338119    0.634690    0.137954     0.005394
PD240   PD        0.369768    0.636235    0.102732     0.005394
AU241   AU        0.369678    0.668534    0.138927     0.007504
AU242   AU        0.403114    0.636579    0.136982     0.007504
PD243   PD        0.433766    0.637943    0.038161     0.005394
AU244   AU        0.437819    0.636029    0.103723     0.007504
AU245   AU        0.434968    0.670906    0.138151     0.007504
AU246   AU        0.469314    0.636017    0.138682     0.007504
PD247   PD        0.469608    0.670623    0.103067     0.005394
AU248   AU        0.502010    0.636902    0.106675     0.007504
AU249   AU        0.502637    0.671407    0.136254     0.007504
AU250   AU        0.535981    0.635097    0.137714     0.007504
PD251   PD        0.568751    0.669649    0.136915     0.005394
AU252   AU        0.602444    0.634369    0.137051     0.007504
PD253   PD        0.405616    0.698690    0.135471     0.005394
PD254   PD        0.467613    0.702537    0.136405     0.005394
PD255   PD        0.305384    0.133515    0.201963     0.005394
PD256   PD        0.369279    0.140167    0.204056     0.005394
PD257   PD        0.409870    0.075228    0.211787     0.005394
PD258   PD        0.402991    0.139987    0.168939     0.005394
PD259   PD        0.436066    0.136891    0.207003     0.005394
PD260   PD        0.467639    0.108605    0.205373     0.005394
PD261   PD        0.469373    0.139670    0.170748     0.005394
PD262   PD        0.504432    0.137460    0.204404     0.005394
PD263   PD        0.564564    0.116624    0.224808     0.005394
AU264   AU        0.236956    0.206148    0.202949     0.007504
AU265   AU        0.269821    0.170609    0.201191     0.007504
PD266   PD        0.266614    0.203915    0.166798     0.005394
AU267   AU        0.301123    0.170128    0.170518     0.007504
AU268   AU        0.298605    0.206383    0.201005     0.007504
PD269   PD        0.333865    0.172663    0.205353     0.005394
AU270   AU        0.333711    0.204795    0.171201     0.007504
PD271   PD        0.370535    0.170629    0.168364     0.005394
PD272   PD        0.369850    0.205394    0.202304     0.005394
PD273   PD        0.404406    0.174756    0.202931     0.005394
PD274   PD        0.401629    0.204011    0.169966     0.005394
PD275   PD        0.432892    0.171224    0.166015     0.005394
PD276   PD        0.439035    0.205761    0.203321     0.005394
AU277   AU        0.470729    0.171351    0.202513     0.007504
PD278   PD        0.469991    0.202327    0.167647     0.005394
PD279   PD        0.504518    0.171335    0.169089     0.005394
AU280   AU        0.502928    0.202318    0.205414     0.007504
AU281   AU        0.536079    0.169631    0.202778     0.007504
PD282   PD        0.538247    0.202969    0.170326     0.005394
PD283   PD        0.567062    0.175380    0.167473     0.005394
AU284   AU        0.568311    0.203272    0.203501     0.007504
PD285   PD        0.603862    0.141182    0.173326     0.005394
AU286   AU        0.598772    0.207519    0.169858     0.007504
AU287   AU        0.633617    0.206117    0.203633     0.007504
AU288   AU        0.168603    0.271025    0.205173     0.007504
AU289   AU        0.200407    0.240661    0.205705     0.007504
AU290   AU        0.203351    0.271563    0.171998     0.007504
AU291   AU        0.234207    0.237665    0.172708     0.007504
AU292   AU        0.236975    0.273031    0.205981     0.007504
AU293   AU        0.269392    0.239296    0.203802     0.007504
AU294   AU        0.268900    0.273048    0.170395     0.007504
PD295   PD        0.300820    0.239778    0.172916     0.005394
AU296   AU        0.301223    0.271643    0.203325     0.007504
AU297   AU        0.336485    0.237067    0.203592     0.007504
PD298   PD        0.335471    0.271355    0.168719     0.005394
PD299   PD        0.369358    0.238550    0.169268     0.005394
PD300   PD        0.369206    0.268966    0.202097     0.005394
PD301   PD        0.403831    0.237698    0.202443     0.005394
AU302   AU        0.403384    0.272057    0.172120     0.007504
PD303   PD        0.438840    0.236805    0.171692     0.005394
AU304   AU        0.437295    0.271195    0.202534     0.007504
PD305   PD        0.468178    0.235166    0.202700     0.005394
AU306   AU        0.469917    0.270571    0.169578     0.007504
AU307   AU        0.504316    0.236033    0.170865     0.007504
PD308   PD        0.503347    0.272136    0.202862     0.005394
AU309   AU        0.536084    0.238536    0.205471     0.007504
AU310   AU        0.534582    0.271678    0.171152     0.007504
AU311   AU        0.569401    0.240799    0.170312     0.007504
AU312   AU        0.568239    0.273591    0.205038     0.007504
AU313   AU        0.600995    0.241359    0.202728     0.007504
AU314   AU        0.601960    0.272740    0.170522     0.007504
PD315   PD        0.633463    0.238645    0.170811     0.005394
AU316   AU        0.636128    0.272378    0.200988     0.007504
PD317   PD        0.668029    0.236477    0.199605     0.005394
AU318   AU        0.667195    0.271548    0.167815     0.007504
AU319   AU        0.700652    0.272286    0.200678     0.007504
PD320   PD        0.135164    0.303895    0.205006     0.005394
PD321   PD        0.167856    0.304772    0.172391     0.005394
AU322   AU        0.169536    0.337974    0.201912     0.007504
PD323   PD        0.201897    0.303456    0.203533     0.005394
AU324   AU        0.203626    0.336712    0.171335     0.007504
AU325   AU        0.234913    0.304631    0.171065     0.007504
PD326   PD        0.235747    0.335876    0.204551     0.005394
AU327   AU        0.269800    0.305692    0.203734     0.007504
PD328   PD        0.267805    0.336670    0.169088     0.005394
AU329   AU        0.301669    0.305601    0.171718     0.007504
AU330   AU        0.301907    0.340261    0.203315     0.007504
PD331   PD        0.336647    0.302496    0.206326     0.005394
PD332   PD        0.334858    0.337774    0.170957     0.005394
PD333   PD        0.371165    0.304815    0.171654     0.005394
AU334   AU        0.366913    0.337663    0.202928     0.007504
PD335   PD        0.402232    0.306552    0.201089     0.005394
PD336   PD        0.402231    0.338127    0.170052     0.005394
PD337   PD        0.436286    0.304432    0.170771     0.005394
PD338   PD        0.437607    0.338125    0.204842     0.005394
PD339   PD        0.469813    0.304051    0.203078     0.005394
PD340   PD        0.469099    0.336019    0.170890     0.005394
PD341   PD        0.501423    0.304663    0.170748     0.005394
AU342   AU        0.503718    0.339493    0.202003     0.007504
PD343   PD        0.536609    0.307150    0.202910     0.005394
AU344   AU        0.537031    0.338445    0.170039     0.007504
PD345   PD        0.567244    0.304931    0.170215     0.005394
AU346   AU        0.569015    0.336202    0.201758     0.007504
AU347   AU        0.604364    0.306115    0.201089     0.007504
PD348   PD        0.604527    0.341304    0.169751     0.005394
AU349   AU        0.634977    0.306251    0.169869     0.007504
AU350   AU        0.634473    0.339905    0.203609     0.007504
AU351   AU        0.667414    0.307859    0.202159     0.007504
PD352   PD        0.668853    0.338013    0.169751     0.005394
PD353   PD        0.700157    0.305515    0.169694     0.005394
AU354   AU        0.700628    0.338542    0.202540     0.007504
PD355   PD        0.733585    0.306452    0.202322     0.005394
PD356   PD        0.103618    0.403131    0.201986     0.005394
PD357   PD        0.135511    0.370363    0.205025     0.005394
PD358   PD        0.133897    0.405467    0.172038     0.005394
AU359   AU        0.166049    0.370879    0.169944     0.007504
AU360   AU        0.169834    0.404398    0.200951     0.007504
AU361   AU        0.201019    0.372763    0.204593     0.007504
AU362   AU        0.203384    0.404100    0.169714     0.007504
PD363   PD        0.235967    0.373082    0.173393     0.005394
PD364   PD        0.238095    0.405058    0.204504     0.005394
PD365   PD        0.268348    0.367890    0.204973     0.005394
AU366   AU        0.270275    0.404080    0.171917     0.007504
AU367   AU        0.301932    0.370957    0.168617     0.007504
PD368   PD        0.303287    0.405001    0.203834     0.005394
AU369   AU        0.336270    0.371359    0.203374     0.007504
AU370   AU        0.333623    0.403738    0.173375     0.007504
PD371   PD        0.368332    0.372415    0.171767     0.005394
PD372   PD        0.372609    0.405241    0.203462     0.005394
PD373   PD        0.403445    0.369305    0.201928     0.005394
PD374   PD        0.404367    0.405227    0.166210     0.005394
AU375   AU        0.436784    0.370567    0.168568     0.007504
PD376   PD        0.436833    0.404981    0.202020     0.005394
PD377   PD        0.470442    0.370656    0.204095     0.005394
AU378   AU        0.469676    0.404918    0.168972     0.007504
PD379   PD        0.504809    0.373216    0.169559     0.005394
AU380   AU        0.502599    0.405162    0.201330     0.007504
PD381   PD        0.535601    0.372083    0.202248     0.005394
PD382   PD        0.535073    0.405226    0.171144     0.005394
AU383   AU        0.568002    0.370530    0.171898     0.007504
AU384   AU        0.568210    0.404891    0.203076     0.007504
PD385   PD        0.601262    0.369538    0.205432     0.005394
PD386   PD        0.603479    0.405127    0.170528     0.005394
AU387   AU        0.635745    0.372307    0.170497     0.007504
AU388   AU        0.635276    0.408168    0.202240     0.007504
PD389   PD        0.668187    0.371824    0.201701     0.005394
PD390   PD        0.669689    0.404916    0.170968     0.005394
PD391   PD        0.702479    0.373757    0.171764     0.005394
AU392   AU        0.699808    0.404927    0.203295     0.007504
PD393   PD        0.735837    0.370614    0.203282     0.005394
PD394   PD        0.734432    0.405734    0.171572     0.005394
PD395   PD        0.803262    0.398484    0.171421     0.005394
PD396   PD        0.069598    0.487151    0.162386     0.005394
PD397   PD        0.134576    0.435457    0.203891     0.005394
PD398   PD        0.132971    0.467755    0.172090     0.005394
AU399   AU        0.169499    0.438216    0.170847     0.007504
PD400   PD        0.168953    0.470252    0.206525     0.005394
PD401   PD        0.203311    0.435937    0.202797     0.005394
AU402   AU        0.202438    0.469587    0.171417     0.007504
AU403   AU        0.237305    0.437254    0.169899     0.007504
AU404   AU        0.237417    0.470033    0.203184     0.007504
AU405   AU        0.269872    0.437269    0.201152     0.007504
AU406   AU        0.268433    0.472158    0.169433     0.007504
AU407   AU        0.302206    0.439685    0.169144     0.007504
AU408   AU        0.303764    0.469104    0.203644     0.007504
PD409   PD        0.335901    0.435120    0.202118     0.005394
PD410   PD        0.333807    0.471379    0.169671     0.005394
PD411   PD        0.364965    0.439126    0.168530     0.005394
PD412   PD        0.366137    0.469503    0.202585     0.005394
PD413   PD        0.402449    0.438596    0.203174     0.005394
PD414   PD        0.401462    0.470491    0.168064     0.005394
PD415   PD        0.435717    0.438947    0.166284     0.005394
PD416   PD        0.434299    0.471700    0.204293     0.005394
AU417   AU        0.471001    0.439868    0.201603     0.007504
AU418   AU        0.470841    0.472525    0.169520     0.007504
AU419   AU        0.502825    0.437987    0.169078     0.007504
PD420   PD        0.504714    0.470857    0.204633     0.005394
AU421   AU        0.536809    0.437984    0.203935     0.007504
AU422   AU        0.536812    0.472552    0.169758     0.007504
AU423   AU        0.569371    0.438350    0.170689     0.007504
AU424   AU        0.568991    0.471962    0.203377     0.007504
AU425   AU        0.603071    0.438173    0.200964     0.007504
PD426   PD        0.601634    0.474244    0.170728     0.005394
PD427   PD        0.635408    0.439285    0.170068     0.005394
AU428   AU        0.634550    0.472857    0.202835     0.007504
PD429   PD        0.668646    0.438740    0.200746     0.005394
AU430   AU        0.669928    0.471082    0.170553     0.007504
AU431   AU        0.702691    0.439369    0.171510     0.007504
AU432   AU        0.700920    0.473521    0.202915     0.007504
AU433   AU        0.735034    0.439297    0.205013     0.007504
PD434   PD        0.734933    0.470573    0.169190     0.005394
PD435   PD        0.768349    0.468084    0.203706     0.005394
AU436   AU        0.136140    0.503356    0.202561     0.007504
PD437   PD        0.172875    0.505854    0.171374     0.005394
PD438   PD        0.171758    0.537442    0.204665     0.005394
PD439   PD        0.203091    0.504705    0.203780     0.005394
PD440   PD        0.200969    0.539114    0.169275     0.005394
PD441   PD        0.233786    0.503941    0.172479     0.005394
AU442   AU        0.235193    0.536928    0.202198     0.007504
PD443   PD        0.272243    0.505075    0.203878     0.005394
PD444   PD        0.268013    0.538268    0.167917     0.005394
PD445   PD        0.300667    0.504287    0.168583     0.005394
PD446   PD        0.306164    0.538483    0.203572     0.005394
PD447   PD        0.335391    0.504251    0.205009     0.005394
PD448   PD        0.336552    0.537936    0.170033     0.005394
PD449   PD        0.368026    0.501228    0.169599     0.005394
AU450   AU        0.369409    0.538772    0.202755     0.007504
AU451   AU        0.401951    0.504219    0.202557     0.007504
PD452   PD        0.401918    0.537371    0.168612     0.005394
PD453   PD        0.434912    0.504772    0.170971     0.005394
AU454   AU        0.435840    0.538671    0.204577     0.007504
PD455   PD        0.465719    0.502437    0.203517     0.005394
PD456   PD        0.469160    0.535880    0.168905     0.005394
AU457   AU        0.500476    0.505345    0.169792     0.007504
PD458   PD        0.500445    0.536705    0.205086     0.005394
AU459   AU        0.535516    0.504820    0.203926     0.007504
PD460   PD        0.535346    0.538524    0.170835     0.005394
PD461   PD        0.567027    0.503769    0.169905     0.005394
AU462   AU        0.568987    0.537763    0.202693     0.007504
AU463   AU        0.601636    0.504688    0.203111     0.007504
AU464   AU        0.602797    0.537847    0.171138     0.007504
AU465   AU        0.634767    0.505156    0.171196     0.007504
AU466   AU        0.636842    0.539408    0.203958     0.007504
PD467   PD        0.667521    0.506291    0.204341     0.005394
PD468   PD        0.668605    0.539417    0.170358     0.005394
AU469   AU        0.702667    0.507364    0.169853     0.007504
PD470   PD        0.700821    0.536982    0.203130     0.005394
PD471   PD        0.737434    0.502748    0.205138     0.005394
PD472   PD        0.134558    0.603621    0.176875     0.005394
PD473   PD        0.168578    0.573568    0.168850     0.005394
PD474   PD        0.172836    0.602726    0.206836     0.005394
AU475   AU        0.202611    0.570008    0.203135     0.007504
PD476   PD        0.201412    0.637490    0.134913     0.005394
PD477   PD        0.238403    0.572156    0.168801     0.005394
PD478   PD        0.238002    0.604963    0.204630     0.005394
PD479   PD        0.271539    0.570165    0.204547     0.005394
AU480   AU        0.270910    0.604201    0.172350     0.007504
PD481   PD        0.304942    0.574197    0.169593     0.005394
PD482   PD        0.304886    0.605153    0.203681     0.005394
PD483   PD        0.336931    0.571268    0.204422     0.005394
PD484   PD        0.335398    0.600116    0.169328     0.005394
PD485   PD        0.370925    0.570802    0.170306     0.005394
AU486   AU        0.371989    0.603903    0.203287     0.007504
AU487   AU        0.405228    0.570505    0.204709     0.007504
AU488   AU        0.402789    0.605614    0.171329     0.007504
AU489   AU        0.434602    0.572323    0.170370     0.007504
PD490   PD        0.439015    0.605071    0.203256     0.005394
PD491   PD        0.472021    0.570907    0.201683     0.005394
PD492   PD        0.471538    0.602363    0.169719     0.005394
AU493   AU        0.503341    0.570195    0.169986     0.007504
PD494   PD        0.500677    0.604025    0.202545     0.005394
AU495   AU        0.534125    0.571004    0.204778     0.007504
AU496   AU        0.535775    0.602678    0.170983     0.007504
AU497   AU        0.569008    0.569014    0.171672     0.007504
AU498   AU        0.568596    0.605450    0.202118     0.007504
PD499   PD        0.604716    0.569196    0.202212     0.005394
AU500   AU        0.602424    0.603670    0.170676     0.007504
AU501   AU        0.635982    0.570446    0.170796     0.007504
AU502   AU        0.636125    0.603781    0.202866     0.007504
AU503   AU        0.669731    0.570588    0.203870     0.007504
AU504   AU        0.668702    0.604500    0.170722     0.007504
PD505   PD        0.703732    0.570677    0.170502     0.005394
AU506   AU        0.702110    0.602196    0.202152     0.007504
AU507   AU        0.734754    0.571042    0.202951     0.007504
PD508   PD        0.207571    0.671001    0.164380     0.005394
PD509   PD        0.237734    0.635156    0.170563     0.005394
AU510   AU        0.237762    0.669476    0.201269     0.007504
PD511   PD        0.270983    0.641361    0.204968     0.005394
AU512   AU        0.273115    0.671855    0.169530     0.007504
AU513   AU        0.304760    0.635638    0.169913     0.007504
AU514   AU        0.305726    0.671104    0.203723     0.007504
PD515   PD        0.337473    0.635160    0.202713     0.005394
AU516   AU        0.338231    0.669359    0.171435     0.007504
AU517   AU        0.371491    0.636038    0.171151     0.007504
AU518   AU        0.371848    0.669154    0.203255     0.007504
AU519   AU        0.404875    0.638192    0.203939     0.007504
PD520   PD        0.402377    0.668454    0.168908     0.005394
AU521   AU        0.437314    0.637660    0.168205     0.007504
AU522   AU        0.436601    0.669630    0.201568     0.007504
AU523   AU        0.469137    0.637824    0.201559     0.007504
PD524   PD        0.470065    0.671218    0.169782     0.005394
AU525   AU        0.503341    0.635620    0.169413     0.007504
PD526   PD        0.502537    0.670011    0.203306     0.005394
PD527   PD        0.533858    0.637884    0.202739     0.005394
AU528   AU        0.535807    0.667573    0.169454     0.007504
PD529   PD        0.570313    0.637963    0.169118     0.005394
AU530   AU        0.571270    0.670848    0.202202     0.007504
AU531   AU        0.601348    0.635228    0.202348     0.007504
AU532   AU        0.604063    0.669787    0.169057     0.007504
PD533   PD        0.634527    0.637251    0.170669     0.005394
AU534   AU        0.636403    0.667412    0.204749     0.007504
AU535   AU        0.670050    0.635665    0.204212     0.007504
PD536   PD        0.268887    0.702326    0.200425     0.005394
AU537   AU        0.305193    0.702786    0.167210     0.007504
PD538   PD        0.301830    0.734753    0.205420     0.005394
AU539   AU        0.339113    0.700736    0.204986     0.007504
AU540   AU        0.373119    0.703842    0.168945     0.007504
PD541   PD        0.371003    0.735751    0.202277     0.005394
PD542   PD        0.404360    0.699686    0.201815     0.005394
PD543   PD        0.401952    0.732373    0.168039     0.005394
AU544   AU        0.436549    0.703764    0.169920     0.007504
PD545   PD        0.436485    0.734384    0.202207     0.005394
AU546   AU        0.469307    0.703958    0.204567     0.007504
AU547   AU        0.472036    0.734376    0.170207     0.007504
PD548   PD        0.502249    0.701171    0.172876     0.005394
AU549   AU        0.504213    0.736858    0.204841     0.007504
AU550   AU        0.535329    0.703805    0.202079     0.007504
PD551   PD        0.569031    0.701489    0.170733     0.005394
PD552   PD        0.567331    0.737882    0.205061     0.005394
PD553   PD        0.603321    0.702881    0.203572     0.005394
PD554   PD        0.404577    0.770068    0.206971     0.005394
PD555   PD        0.436573    0.769780    0.169433     0.005394
PD556   PD        0.338707    0.037393    0.272032     0.005394
PD557   PD        0.404076    0.072017    0.302031     0.005394
PD558   PD        0.511128    0.048959    0.234529     0.005394
PD559   PD        0.233384    0.140123    0.270887     0.005394
PD560   PD        0.271437    0.102810    0.271666     0.005394
PD561   PD        0.229958    0.143514    0.199406     0.005394
PD562   PD        0.303259    0.140099    0.268730     0.005394
PD563   PD        0.333435    0.106654    0.267796     0.005394
AU564   AU        0.333242    0.140878    0.236439     0.007504
PD565   PD        0.366590    0.107828    0.234193     0.005394
AU566   AU        0.366542    0.140585    0.269313     0.007504
AU567   AU        0.400047    0.107336    0.266576     0.007504
PD568   PD        0.399538    0.141322    0.236707     0.005394
PD569   PD        0.477398    0.071205    0.239346     0.005394
PD570   PD        0.439343    0.139883    0.268735     0.005394
AU571   AU        0.468505    0.104840    0.269331     0.007504
PD572   PD        0.470805    0.140488    0.234960     0.005394
AU573   AU        0.503164    0.108606    0.236976     0.007504
AU574   AU        0.502038    0.136994    0.270981     0.007504
AU575   AU        0.534834    0.105312    0.271565     0.007504
PD576   PD        0.537146    0.139693    0.238380     0.005394
AU577   AU        0.569839    0.136991    0.269337     0.007504
AU578   AU        0.603729    0.103180    0.273309     0.007504
AU579   AU        0.601739    0.137536    0.238700     0.007504
AU580   AU        0.634143    0.138944    0.268945     0.007504
AU581   AU        0.168215    0.205292    0.269822     0.007504
PD582   PD        0.199711    0.170989    0.267096     0.005394
PD583   PD        0.201089    0.204658    0.236917     0.005394
PD584   PD        0.236607    0.172442    0.235817     0.005394
AU585   AU        0.235371    0.205192    0.270617     0.007504
PD586   PD        0.268726    0.168419    0.266147     0.005394
AU587   AU        0.267974    0.205032    0.237832     0.007504
AU588   AU        0.299347    0.173141    0.237815     0.007504
AU589   AU        0.301239    0.205286    0.270238     0.007504
PD590   PD        0.336945    0.173697    0.270154     0.005394
PD591   PD        0.330835    0.205848    0.235344     0.005394
AU592   AU        0.366762    0.173910    0.235862     0.007504
PD593   PD        0.370164    0.206575    0.269098     0.005394
PD594   PD        0.402976    0.173031    0.271289     0.005394
AU595   AU        0.402438    0.204377    0.236814     0.007504
AU596   AU        0.436446    0.170781    0.237043     0.007504
AU597   AU        0.438079    0.205180    0.269027     0.007504
AU598   AU        0.470030    0.170808    0.270580     0.007504
AU599   AU        0.470477    0.204657    0.236788     0.007504
AU600   AU        0.505125    0.170138    0.236711     0.007504
PD601   PD        0.504894    0.204217    0.268572     0.005394
PD602   PD        0.535063    0.169682    0.270725     0.005394
PD603   PD        0.537072    0.204393    0.236172     0.005394
AU604   AU        0.569576    0.170886    0.237112     0.007504
AU605   AU        0.568940    0.204412    0.268352     0.007504
PD606   PD        0.600821    0.172305    0.269507     0.005394
PD607   PD        0.603279    0.206512    0.236328     0.005394
AU608   AU        0.633564    0.171874    0.235474     0.007504
AU609   AU        0.636385    0.204718    0.267412     0.007504
AU610   AU        0.667790    0.168388    0.270099     0.007504
PD611   PD        0.664322    0.204589    0.238672     0.005394
PD612   PD        0.703869    0.204327    0.267029     0.005394
PD613   PD        0.101601    0.267920    0.268138     0.005394
AU614   AU        0.136295    0.238044    0.270938     0.007504
PD615   PD        0.136644    0.272425    0.239998     0.005394
PD616   PD        0.136629    0.202370    0.233765     0.005394
AU617   AU        0.170440    0.272140    0.271492     0.007504
PD618   PD        0.203001    0.238091    0.269507     0.005394
PD619   PD        0.201813    0.272459    0.238806     0.005394
AU620   AU        0.234265    0.237335    0.238354     0.007504
PD621   PD        0.237680    0.268635    0.270254     0.005394
PD622   PD        0.270756    0.239330    0.267920     0.005394
PD623   PD        0.269099    0.271859    0.235141     0.005394
AU624   AU        0.301943    0.239287    0.237130     0.007504
PD625   PD        0.302489    0.271583    0.267141     0.005394
AU626   AU        0.335657    0.239846    0.267960     0.007504
PD627   PD        0.337243    0.270927    0.236227     0.005394
AU628   AU        0.369325    0.237108    0.236971     0.007504
AU629   AU        0.369879    0.273109    0.268891     0.007504
AU630   AU        0.404326    0.237749    0.268557     0.007504
PD631   PD        0.400295    0.270962    0.234993     0.005394
PD632   PD        0.437499    0.237537    0.233550     0.005394
AU633   AU        0.434996    0.271564    0.269845     0.007504
PD634   PD        0.468759    0.239458    0.269309     0.005394
AU635   AU        0.471439    0.271850    0.236302     0.007504
PD636   PD        0.501323    0.236022    0.235616     0.005394
PD637   PD        0.500876    0.273430    0.269288     0.005394
AU638   AU        0.537347    0.238442    0.268885     0.007504
AU639   AU        0.534924    0.273606    0.236814     0.007504
AU640   AU        0.569902    0.237998    0.236077     0.007504
PD641   PD        0.572037    0.272576    0.267709     0.005394
PD642   PD        0.607058    0.239269    0.268554     0.005394
AU643   AU        0.603807    0.272542    0.234725     0.007504
AU644   AU        0.636138    0.239769    0.235362     0.007504
AU645   AU        0.636691    0.273466    0.269890     0.007504
AU646   AU        0.668607    0.239143    0.268211     0.007504
AU647   AU        0.669078    0.272147    0.233706     0.007504
PD648   PD        0.703210    0.238806    0.234382     0.005394
AU649   AU        0.701387    0.272363    0.268035     0.007504
PD650   PD        0.736780    0.237557    0.267286     0.005394
PD651   PD        0.734967    0.272604    0.236467     0.005394
PD652   PD        0.767987    0.276617    0.271766     0.005394
AU653   AU        0.102140    0.337051    0.269884     0.007504
AU654   AU        0.134640    0.304506    0.270623     0.007504
AU655   AU        0.137143    0.337987    0.236034     0.007504
AU656   AU        0.168353    0.304084    0.237675     0.007504
AU657   AU        0.167041    0.337782    0.271344     0.007504
PD658   PD        0.201303    0.305601    0.270302     0.005394
AU659   AU        0.201629    0.339064    0.237132     0.007504
AU660   AU        0.233371    0.305984    0.239291     0.007504
PD661   PD        0.232826    0.339273    0.272342     0.005394
AU662   AU        0.267430    0.305070    0.269067     0.007504
PD663   PD        0.269012    0.338925    0.235503     0.005394
AU664   AU        0.302002    0.304592    0.235329     0.007504
PD665   PD        0.303442    0.337433    0.268065     0.005394
AU666   AU        0.336121    0.303680    0.268355     0.007504
AU667   AU        0.335098    0.336873    0.237235     0.007504
AU668   AU        0.370601    0.306989    0.236754     0.007504
AU669   AU        0.370416    0.336091    0.270902     0.007504
PD670   PD        0.402999    0.302202    0.267875     0.005394
PD671   PD        0.403194    0.336747    0.236645     0.005394
AU672   AU        0.435238    0.304118    0.234904     0.007504
PD673   PD        0.435108    0.337735    0.270487     0.005394
AU674   AU        0.467366    0.305769    0.268597     0.007504
AU675   AU        0.469962    0.338633    0.238066     0.007504
PD676   PD        0.502166    0.305803    0.236840     0.005394
PD677   PD        0.500013    0.338892    0.270933     0.005394
AU678   AU        0.534420    0.306404    0.269480     0.007504
AU679   AU        0.535724    0.339296    0.234671     0.007504
AU680   AU        0.569579    0.305836    0.236113     0.007504
AU681   AU        0.568446    0.339402    0.267897     0.007504
AU682   AU        0.603634    0.305397    0.268406     0.007504
PD683   PD        0.602983    0.336670    0.236402     0.005394
AU684   AU        0.635893    0.303888    0.236927     0.007504
PD685   PD        0.633000    0.339188    0.269457     0.005394
PD686   PD        0.668401    0.303331    0.269804     0.005394
PD687   PD        0.670013    0.338601    0.235751     0.005394
AU688   AU        0.701550    0.305109    0.235929     0.007504
PD689   PD        0.699705    0.340991    0.268908     0.005394
PD690   PD        0.732396    0.306648    0.267169     0.005394
PD691   PD        0.735028    0.339406    0.234514     0.005394
AU692   AU        0.766375    0.338738    0.270129     0.007504
PD693   PD        0.035486    0.403774    0.270322     0.005394
AU694   AU        0.101279    0.372371    0.240234     0.007504
PD695   PD        0.103092    0.405470    0.272459     0.005394
AU696   AU        0.137314    0.369425    0.270428     0.007504
PD697   PD        0.133987    0.403429    0.236114     0.005394
AU698   AU        0.168673    0.371328    0.237737     0.007504
PD699   PD        0.167421    0.405701    0.270130     0.005394
AU700   AU        0.201584    0.371754    0.269780     0.007504
PD701   PD        0.204616    0.403301    0.235905     0.005394
PD702   PD        0.234276    0.369989    0.235216     0.005394
PD703   PD        0.234814    0.404804    0.269909     0.005394
PD704   PD        0.266403    0.370058    0.268465     0.005394
PD705   PD        0.272259    0.404350    0.237939     0.005394
PD706   PD        0.300109    0.370290    0.237011     0.005394
PD707   PD        0.303044    0.403677    0.269587     0.005394
PD708   PD        0.335803    0.370050    0.272905     0.005394
AU709   AU        0.334798    0.403295    0.234910     0.007504
AU710   AU        0.368068    0.369996    0.237889     0.007504
AU711   AU        0.366383    0.404863    0.269783     0.007504
AU712   AU        0.402179    0.371221    0.268565     0.007504
PD713   PD        0.402991    0.407049    0.238257     0.005394
AU714   AU        0.436129    0.371327    0.236362     0.007504
PD715   PD        0.436079    0.404568    0.269083     0.005394
AU716   AU        0.468257    0.372285    0.269762     0.007504
PD717   PD        0.469089    0.404916    0.234302     0.005394
AU718   AU        0.502309    0.371291    0.237015     0.007504
AU719   AU        0.504124    0.404257    0.268743     0.007504
PD720   PD        0.534536    0.368913    0.269177     0.005394
AU721   AU        0.535266    0.404015    0.235004     0.007504
PD722   PD        0.571735    0.373008    0.237198     0.005394
PD723   PD        0.571077    0.405046    0.267306     0.005394
AU724   AU        0.602873    0.372205    0.269937     0.007504
AU725   AU        0.603176    0.407173    0.235841     0.007504
AU726   AU        0.636534    0.373750    0.235623     0.007504
AU727   AU        0.636206    0.405203    0.268290     0.007504
PD728   PD        0.667348    0.369865    0.269746     0.005394
AU729   AU        0.668715    0.405071    0.236023     0.007504
AU730   AU        0.700195    0.370511    0.235019     0.007504
PD731   PD        0.702345    0.408037    0.269129     0.005394
PD732   PD        0.733208    0.371438    0.271222     0.005394
AU733   AU        0.731647    0.405654    0.235317     0.007504
PD734   PD        0.803617    0.335174    0.237164     0.005394
PD735   PD        0.767284    0.404722    0.270136     0.005394
PD736   PD        0.798863    0.371952    0.266652     0.005394
PD737   PD        0.072152    0.435836    0.268731     0.005394
PD738   PD        0.105080    0.435963    0.237386     0.005394
AU739   AU        0.102575    0.469815    0.271088     0.007504
PD740   PD        0.135404    0.437996    0.270106     0.005394
PD741   PD        0.135304    0.469534    0.234870     0.005394
PD742   PD        0.169430    0.436226    0.239656     0.005394
AU743   AU        0.168293    0.470423    0.269058     0.007504
PD744   PD        0.204400    0.436212    0.269710     0.005394
AU745   AU        0.202752    0.471884    0.236336     0.007504
AU746   AU        0.237660    0.437973    0.236811     0.007504
PD747   PD        0.236166    0.470527    0.269162     0.005394
AU748   AU        0.270899    0.438078    0.269134     0.007504
AU749   AU        0.270061    0.469362    0.235704     0.007504
AU750   AU        0.304564    0.437818    0.236842     0.007504
AU751   AU        0.303403    0.471616    0.268196     0.007504
PD752   PD        0.333553    0.437358    0.269508     0.005394
AU753   AU        0.335557    0.472901    0.236951     0.007504
PD754   PD        0.367893    0.438370    0.238413     0.005394
AU755   AU        0.368615    0.470393    0.269093     0.007504
PD756   PD        0.402889    0.437078    0.271116     0.005394
PD757   PD        0.399967    0.470741    0.237621     0.005394
AU758   AU        0.435692    0.438986    0.238290     0.007504
AU759   AU        0.437409    0.471375    0.270241     0.007504
PD760   PD        0.468433    0.436209    0.270852     0.005394
PD761   PD        0.471645    0.472814    0.237697     0.005394
PD762   PD        0.504345    0.439392    0.238010     0.005394
PD763   PD        0.504124    0.471168    0.269969     0.005394
AU764   AU        0.537836    0.438279    0.269671     0.007504
PD765   PD        0.534106    0.474227    0.236339     0.005394
AU766   AU        0.569949    0.437704    0.235563     0.007504
AU767   AU        0.567117    0.472853    0.267920     0.007504
PD768   PD        0.601236    0.440639    0.267263     0.005394
AU769   AU        0.602281    0.471067    0.236102     0.007504
AU770   AU        0.634215    0.439142    0.235412     0.007504
PD771   PD        0.635808    0.472072    0.269656     0.005394
AU772   AU        0.668455    0.437962    0.270348     0.007504
PD773   PD        0.668088    0.472217    0.235761     0.005394
AU774   AU        0.701441    0.440163    0.235624     0.007504
AU775   AU        0.701335    0.472829    0.269704     0.007504
AU776   AU        0.734844    0.439543    0.269634     0.007504
PD777   PD        0.735536    0.469556    0.234098     0.005394
PD778   PD        0.766738    0.438709    0.238257     0.005394
PD779   PD        0.767762    0.471642    0.271304     0.005394
PD780   PD        0.831511    0.468063    0.266574     0.005394
PD781   PD        0.068079    0.502436    0.271205     0.005394
PD782   PD        0.097518    0.500618    0.238944     0.005394
PD783   PD        0.105827    0.534518    0.269554     0.005394
AU784   AU        0.135112    0.502823    0.269167     0.007504
AU785   AU        0.139687    0.536679    0.239401     0.007504
PD786   PD        0.170686    0.503603    0.239107     0.005394
PD787   PD        0.171131    0.539921    0.271856     0.005394
PD788   PD        0.204279    0.504519    0.270639     0.005394
AU789   AU        0.203999    0.538421    0.237423     0.007504
PD790   PD        0.235313    0.505346    0.238550     0.005394
AU791   AU        0.237970    0.535392    0.272770     0.007504
PD792   PD        0.269152    0.505136    0.269244     0.005394
PD793   PD        0.271522    0.538658    0.237331     0.005394
PD794   PD        0.300882    0.503823    0.236480     0.005394
PD795   PD        0.301786    0.536358    0.272040     0.005394
AU796   AU        0.335886    0.504234    0.271581     0.007504
AU797   AU        0.336635    0.538998    0.236949     0.007504
PD798   PD        0.367836    0.504536    0.234964     0.005394
AU799   AU        0.370750    0.536573    0.270532     0.007504
AU800   AU        0.402360    0.504548    0.271004     0.007504
AU801   AU        0.402958    0.537320    0.235520     0.007504
AU802   AU        0.435082    0.504131    0.237704     0.007504
PD803   PD        0.438189    0.539757    0.268675     0.005394
PD804   PD        0.466987    0.504858    0.270406     0.005394
PD805   PD        0.468582    0.537851    0.238328     0.005394
AU806   AU        0.501992    0.506446    0.237349     0.007504
PD807   PD        0.502355    0.538281    0.268504     0.005394
PD808   PD        0.537323    0.507970    0.269665     0.005394
AU809   AU        0.537323    0.536764    0.237048     0.007504
AU810   AU        0.569643    0.504497    0.235901     0.007504
AU811   AU        0.570257    0.539696    0.269119     0.007504
AU812   AU        0.602341    0.503200    0.268287     0.007504
AU813   AU        0.601853    0.538885    0.234892     0.007504
AU814   AU        0.634386    0.505283    0.236578     0.007504
AU815   AU        0.634117    0.537469    0.269458     0.007504
AU816   AU        0.666727    0.505077    0.269784     0.007504
PD817   PD        0.667469    0.538755    0.236830     0.005394
AU818   AU        0.700647    0.505012    0.236537     0.007504
AU819   AU        0.703611    0.536585    0.270075     0.007504
AU820   AU        0.734680    0.502424    0.271082     0.007504
AU821   AU        0.734180    0.534967    0.237555     0.007504
PD822   PD        0.804261    0.499626    0.200434     0.005394
AU823   AU        0.768288    0.536409    0.269876     0.007504
PD824   PD        0.821815    0.526214    0.297332     0.005394
PD825   PD        0.098367    0.595658    0.254336     0.005394
PD826   PD        0.139083    0.570542    0.271218     0.005394
PD827   PD        0.104872    0.635483    0.228743     0.005394
AU828   AU        0.171356    0.571850    0.239436     0.007504
PD829   PD        0.171088    0.602487    0.274027     0.005394
PD830   PD        0.204876    0.569949    0.272944     0.005394
AU831   AU        0.204343    0.601710    0.237417     0.007504
PD832   PD        0.238244    0.568343    0.236107     0.005394
PD833   PD        0.239610    0.603940    0.269174     0.005394
AU834   AU        0.271492    0.568417    0.270759     0.007504
PD835   PD        0.270976    0.605048    0.235427     0.005394
PD836   PD        0.303800    0.571773    0.237122     0.005394
PD837   PD        0.303322    0.604302    0.270733     0.005394
AU838   AU        0.334807    0.570300    0.270643     0.007504
AU839   AU        0.337307    0.604623    0.236218     0.007504
AU840   AU        0.370948    0.570793    0.237896     0.007504
AU841   AU        0.369677    0.602936    0.270098     0.007504
PD842   PD        0.404307    0.570424    0.269044     0.005394
AU843   AU        0.405479    0.603755    0.236610     0.007504
PD844   PD        0.439564    0.573316    0.235499     0.005394
AU845   AU        0.436863    0.605054    0.267412     0.007504
AU846   AU        0.469930    0.572844    0.269352     0.007504
AU847   AU        0.471140    0.603760    0.237412     0.007504
AU848   AU        0.501852    0.569967    0.238148     0.007504
AU849   AU        0.501922    0.604689    0.269446     0.007504
AU850   AU        0.536837    0.570721    0.269905     0.007504
PD851   PD        0.534610    0.600875    0.236939     0.005394
AU852   AU        0.569353    0.570296    0.234425     0.007504
PD853   PD        0.568137    0.603150    0.267176     0.005394
AU854   AU        0.602872    0.571443    0.267314     0.007504
PD855   PD        0.600950    0.603358    0.233068     0.005394
AU856   AU        0.635684    0.571366    0.235719     0.007504
PD857   PD        0.636235    0.601565    0.268755     0.005394
AU858   AU        0.667851    0.570195    0.270617     0.007504
AU859   AU        0.670816    0.603309    0.235008     0.007504
PD860   PD        0.704413    0.572231    0.237164     0.005394
AU861   AU        0.702148    0.602237    0.270686     0.007504
AU862   AU        0.735772    0.569881    0.269859     0.007504
AU863   AU        0.735566    0.604192    0.236106     0.007504
PD864   PD        0.771754    0.599588    0.270423     0.005394
PD865   PD        0.140552    0.638402    0.270341     0.005394
PD866   PD        0.099843    0.673648    0.205576     0.005394
PD867   PD        0.164903    0.761519    0.231439     0.005394
AU868   AU        0.202753    0.636633    0.267808     0.007504
PD869   PD        0.206596    0.672948    0.233783     0.005394
PD870   PD        0.239686    0.637718    0.236015     0.005394
PD871   PD        0.236967    0.670417    0.267206     0.005394
AU872   AU        0.270784    0.636303    0.269644     0.007504
PD873   PD        0.270839    0.669682    0.232857     0.005394
AU874   AU        0.303903    0.636034    0.235817     0.007504
AU875   AU        0.301586    0.670038    0.269594     0.007504
PD876   PD        0.337766    0.637871    0.269589     0.005394
PD877   PD        0.338202    0.666443    0.235504     0.005394
AU878   AU        0.370506    0.634745    0.235750     0.007504
AU879   AU        0.372413    0.669709    0.269616     0.007504
PD880   PD        0.404985    0.637836    0.270741     0.005394
AU881   AU        0.404985    0.668691    0.235950     0.007504
AU882   AU        0.437329    0.638403    0.235658     0.007504
AU883   AU        0.438664    0.671260    0.269112     0.007504
AU884   AU        0.469082    0.636599    0.270683     0.007504
AU885   AU        0.471158    0.668570    0.235893     0.007504
PD886   PD        0.504261    0.636442    0.237161     0.005394
AU887   AU        0.503754    0.669641    0.269039     0.007504
AU888   AU        0.536040    0.637668    0.270068     0.007504
AU889   AU        0.538194    0.670190    0.236416     0.007504
PD890   PD        0.568784    0.638221    0.235906     0.005394
AU891   AU        0.568154    0.669510    0.270069     0.007504
PD892   PD        0.601309    0.637632    0.269404     0.005394
AU893   AU        0.602111    0.669148    0.235678     0.007504
AU894   AU        0.636362    0.636958    0.238756     0.007504
AU895   AU        0.633854    0.670432    0.269289     0.007504
PD896   PD        0.668464    0.636536    0.268586     0.005394
AU897   AU        0.666870    0.670927    0.237145     0.007504
AU898   AU        0.701386    0.636296    0.237617     0.007504
AU899   AU        0.699396    0.669519    0.269403     0.007504
PD900   PD        0.734813    0.637568    0.270352     0.005394
PD901   PD        0.207196    0.707486    0.199816     0.005394
PD902   PD        0.238607    0.703760    0.235651     0.005394
PD903   PD        0.240892    0.740304    0.271983     0.005394
AU904   AU        0.271728    0.703363    0.270951     0.007504
PD905   PD        0.273215    0.732825    0.233899     0.005394
PD906   PD        0.303035    0.701496    0.236072     0.005394
AU907   AU        0.306392    0.733942    0.272625     0.007504
PD908   PD        0.337561    0.699354    0.267790     0.005394
AU909   AU        0.337193    0.734837    0.237309     0.007504
AU910   AU        0.370601    0.701235    0.236205     0.007504
PD911   PD        0.370476    0.736221    0.268975     0.005394
AU912   AU        0.405399    0.702123    0.268513     0.007504
PD913   PD        0.404469    0.737734    0.236095     0.005394
AU914   AU        0.438031    0.703040    0.234516     0.007504
PD915   PD        0.437550    0.734485    0.269244     0.005394
PD916   PD        0.471720    0.703796    0.269375     0.005394
AU917   AU        0.469226    0.736312    0.237759     0.007504
AU918   AU        0.502798    0.703066    0.236364     0.007504
PD919   PD        0.505112    0.734040    0.269615     0.005394
PD920   PD        0.538657    0.702427    0.267827     0.005394
AU921   AU        0.536337    0.737420    0.236374     0.007504
AU922   AU        0.569064    0.703607    0.234276     0.007504
AU923   AU        0.569094    0.736283    0.269623     0.007504
AU924   AU        0.600245    0.703775    0.269699     0.007504
PD925   PD        0.600888    0.737942    0.238280     0.005394
AU926   AU        0.636097    0.705328    0.235341     0.007504
PD927   PD        0.632216    0.737630    0.269965     0.005394
AU928   AU        0.666605    0.702507    0.271748     0.007504
PD929   PD        0.257870    0.772048    0.259776     0.005394
AU930   AU        0.337460    0.769900    0.271579     0.007504
PD931   PD        0.369763    0.771555    0.236061     0.005394
PD932   PD        0.370414    0.800639    0.273238     0.005394
PD933   PD        0.402685    0.767835    0.269632     0.005394
AU934   AU        0.437398    0.769569    0.236928     0.007504
PD935   PD        0.437718    0.801052    0.267053     0.005394
AU936   AU        0.472731    0.769432    0.267948     0.007504
PD937   PD        0.505022    0.770374    0.236960     0.005394
PD938   PD        0.503607    0.802408    0.270793     0.005394
AU939   AU        0.535720    0.768461    0.269340     0.007504
PD940   PD        0.604968    0.769523    0.270271     0.005394
PD941   PD        0.304232    0.072901    0.334669     0.005394
PD942   PD        0.306454    0.036003    0.308399     0.005394
PD943   PD        0.364540    0.072351    0.334564     0.005394
PD944   PD        0.398772    0.003209    0.301493     0.005394
PD945   PD        0.435812    0.074729    0.334826     0.005394
PD946   PD        0.462874    0.072605    0.301853     0.005394
AU947   AU        0.504567    0.070522    0.335339     0.007504
PD948   PD        0.534848    0.073011    0.300017     0.005394
AU949   AU        0.564402    0.071721    0.337151     0.007504
PD950   PD        0.203727    0.140634    0.303049     0.005394
AU951   AU        0.238176    0.137166    0.335711     0.007504
PD952   PD        0.268713    0.104557    0.330232     0.005394
PD953   PD        0.269202    0.140695    0.301211     0.005394
PD954   PD        0.304279    0.108305    0.302506     0.005394
AU955   AU        0.300003    0.138866    0.337145     0.007504
AU956   AU        0.333305    0.108736    0.336115     0.007504
PD957   PD        0.335229    0.141575    0.302564     0.005394
AU958   AU        0.365994    0.106552    0.303176     0.007504
PD959   PD        0.369769    0.140214    0.336448     0.005394
PD960   PD        0.402122    0.105546    0.335551     0.005394
AU961   AU        0.402193    0.139675    0.302541     0.007504
PD962   PD        0.434982    0.104586    0.302908     0.005394
PD963   PD        0.435943    0.140067    0.333773     0.005394
AU964   AU        0.470125    0.104480    0.337626     0.007504
PD965   PD        0.467339    0.138395    0.306750     0.005394
PD966   PD        0.501269    0.102646    0.302224     0.005394
PD967   PD        0.502739    0.138595    0.335968     0.005394
AU968   AU        0.534953    0.105703    0.335441     0.007504
PD969   PD        0.534037    0.136732    0.303377     0.005394
AU970   AU        0.568987    0.107488    0.304271     0.007504
PD971   PD        0.569653    0.139246    0.333786     0.005394
AU972   AU        0.599555    0.104984    0.338085     0.007504
AU973   AU        0.602105    0.139073    0.300718     0.007504
AU974   AU        0.632682    0.138547    0.335642     0.007504
PD975   PD        0.668078    0.137549    0.304199     0.005394
AU976   AU        0.134440    0.203426    0.299741     0.007504
PD977   PD        0.166320    0.173391    0.299206     0.005394
PD978   PD        0.170421    0.204653    0.335951     0.005394
AU979   AU        0.203432    0.172204    0.335073     0.007504
PD980   PD        0.203876    0.205164    0.301863     0.005394
PD981   PD        0.235170    0.173335    0.301999     0.005394
PD982   PD        0.235233    0.205710    0.335395     0.005394
AU983   AU        0.267818    0.171752    0.337514     0.007504
PD984   PD        0.266805    0.204165    0.302629     0.005394
PD985   PD        0.300961    0.171067    0.300250     0.005394
AU986   AU        0.303109    0.204370    0.334916     0.007504
PD987   PD        0.329955    0.173353    0.334293     0.005394
PD988   PD        0.332927    0.204650    0.302042     0.005394
PD989   PD        0.367574    0.173051    0.303681     0.005394
PD990   PD        0.364806    0.203554    0.337889     0.005394
AU991   AU        0.400667    0.170474    0.335503     0.007504
PD992   PD        0.402225    0.206115    0.303902     0.005394
PD993   PD        0.435777    0.172980    0.299784     0.005394
AU994   AU        0.435663    0.204247    0.334126     0.007504
AU995   AU        0.468041    0.172083    0.333230     0.007504
AU996   AU        0.468476    0.205358    0.300283     0.007504
PD997   PD        0.503290    0.168557    0.302323     0.005394
AU998   AU        0.501927    0.201980    0.332720     0.007504
AU999   AU        0.536415    0.171292    0.333826     0.007504
PD1000   PD        0.537258    0.204442    0.302780     0.005394
PD1001   PD        0.568692    0.170456    0.300988     0.005394
PD1002   PD        0.569543    0.203569    0.334160     0.005394
AU1003   AU        0.601626    0.170351    0.335385     0.007504
PD1004   PD        0.602235    0.202692    0.301738     0.005394
AU1005   AU        0.633986    0.171727    0.302416     0.007504
PD1006   PD        0.633983    0.207015    0.334952     0.005394
AU1007   AU        0.664473    0.173203    0.333221     0.007504
AU1008   AU        0.668747    0.206157    0.300420     0.007504
PD1009   PD        0.703057    0.171388    0.298894     0.005394
AU1010   AU        0.702250    0.204759    0.334903     0.007504
PD1011   PD        0.736804    0.204073    0.303904     0.005394
AU1012   AU        0.103139    0.269740    0.335382     0.007504
AU1013   AU        0.136019    0.237745    0.334580     0.007504
AU1014   AU        0.137287    0.270037    0.302716     0.007504
AU1015   AU        0.170890    0.237729    0.302317     0.007504
PD1016   PD        0.166255    0.273132    0.337068     0.005394
PD1017   PD        0.205237    0.238249    0.335029     0.005394
AU1018   AU        0.199794    0.271480    0.305152     0.007504
PD1019   PD        0.236991    0.237069    0.301485     0.005394
AU1020   AU        0.235839    0.272429    0.335173     0.007504
PD1021   PD        0.268290    0.240759    0.337923     0.005394
AU1022   AU        0.268573    0.270421    0.303105     0.007504
AU1023   AU        0.302830    0.237864    0.302580     0.007504
AU1024   AU        0.303458    0.270858    0.336858     0.007504
PD1025   PD        0.337342    0.237861    0.336085     0.005394
AU1026   AU        0.335086    0.271355    0.304237     0.007504
AU1027   AU        0.369568    0.239472    0.302882     0.007504
AU1028   AU        0.368636    0.271655    0.336667     0.007504
PD1029   PD        0.401245    0.239358    0.336501     0.005394
PD1030   PD        0.401151    0.270139    0.302912     0.005394
PD1031   PD        0.435495    0.238257    0.303248     0.005394
PD1032   PD        0.434428    0.271138    0.336300     0.005394
AU1033   AU        0.468908    0.234057    0.337292     0.007504
PD1034   PD        0.467076    0.270323    0.302447     0.005394
PD1035   PD        0.502906    0.239863    0.301392     0.005394
PD1036   PD        0.504022    0.272315    0.333722     0.005394
PD1037   PD        0.535296    0.238413    0.335087     0.005394
PD1038   PD        0.535574    0.269360    0.301886     0.005394
PD1039   PD        0.570926    0.239525    0.300083     0.005394
PD1040   PD        0.565843    0.268727    0.339523     0.005394
PD1041   PD        0.601268    0.238675    0.334112     0.005394
PD1042   PD        0.604309    0.267954    0.301654     0.005394
PD1043   PD        0.636199    0.237745    0.303071     0.005394
PD1044   PD        0.636497    0.272674    0.334653     0.005394
PD1045   PD        0.671331    0.238680    0.335193     0.005394
PD1046   PD        0.670895    0.270355    0.301379     0.005394
AU1047   AU        0.704926    0.237350    0.298873     0.007504
AU1048   AU        0.701388    0.273274    0.336774     0.007504
PD1049   PD        0.736110    0.236308    0.336079     0.005394
PD1050   PD        0.734951    0.272357    0.301529     0.005394
PD1051   PD        0.766807    0.274873    0.335816     0.005394
PD1052   PD        0.071595    0.306365    0.335633     0.005394
AU1053   AU        0.071358    0.339020    0.302773     0.007504
AU1054   AU        0.103884    0.302901    0.303613     0.007504
AU1055   AU        0.103560    0.340049    0.336177     0.007504
AU1056   AU        0.134722    0.306188    0.335465     0.007504
PD1057   PD        0.135151    0.337223    0.302496     0.005394
AU1058   AU        0.169075    0.305120    0.303546     0.007504
PD1059   PD        0.167820    0.339449    0.333592     0.005394
PD1060   PD        0.202494    0.304310    0.335503     0.005394
AU1061   AU        0.201667    0.337177    0.303178     0.007504
AU1062   AU        0.234488    0.303213    0.301694     0.007504
AU1063   AU        0.236078    0.339534    0.334120     0.007504
PD1064   PD        0.268588    0.305059    0.333834     0.005394
PD1065   PD        0.268474    0.337309    0.301563     0.005394
AU1066   AU        0.301631    0.303547    0.301761     0.007504
AU1067   AU        0.302905    0.337770    0.336540     0.007504
PD1068   PD        0.335328    0.301708    0.336384     0.005394
AU1069   AU        0.338537    0.336141    0.305108     0.007504
AU1070   AU        0.369718    0.303041    0.303489     0.007504
PD1071   PD        0.371908    0.335812    0.337632     0.005394
PD1072   PD        0.401840    0.305335    0.335857     0.005394
PD1073   PD        0.402346    0.335865    0.303422     0.005394
AU1074   AU        0.432427    0.303559    0.304248     0.007504
PD1075   PD        0.438656    0.337736    0.335075     0.005394
PD1076   PD        0.468758    0.301800    0.336056     0.005394
PD1077   PD        0.468651    0.338535    0.302539     0.005394
AU1078   AU        0.501057    0.305799    0.302139     0.007504
PD1079   PD        0.505539    0.340593    0.338165     0.005394
PD1080   PD        0.535866    0.306990    0.334533     0.005394
AU1081   AU        0.535798    0.338901    0.304200     0.007504
PD1082   PD        0.568559    0.305562    0.298972     0.005394
AU1083   AU        0.568679    0.340292    0.337283     0.007504
PD1084   PD        0.602663    0.304022    0.335788     0.005394
PD1085   PD        0.601646    0.340389    0.301583     0.005394
PD1086   PD        0.636631    0.305136    0.304090     0.005394
AU1087   AU        0.634285    0.340187    0.335661     0.007504
PD1088   PD        0.669857    0.308020    0.334372     0.005394
PD1089   PD        0.667012    0.337118    0.301381     0.005394
PD1090   PD        0.703154    0.308723    0.303053     0.005394
PD1091   PD        0.700699    0.340951    0.336486     0.005394
PD1092   PD        0.733936    0.309141    0.338405     0.005394
PD1093   PD        0.734377    0.340321    0.303592     0.005394
PD1094   PD        0.765101    0.306114    0.305366     0.005394
AU1095   AU        0.768442    0.339322    0.335102     0.007504
PD1096   PD        0.828045    0.286996    0.275676     0.005394
PD1097   PD        0.799583    0.339553    0.302015     0.005394
AU1098   AU        0.071731    0.370963    0.337630     0.007504
PD1099   PD        0.070132    0.400814    0.302153     0.005394
AU1100   AU        0.104635    0.370810    0.302773     0.007504
AU1101   AU        0.103060    0.402852    0.336881     0.007504
AU1102   AU        0.135918    0.370078    0.336769     0.007504
AU1103   AU        0.136155    0.405073    0.302959     0.007504
PD1104   PD        0.168264    0.371575    0.304759     0.005394
AU1105   AU        0.168704    0.403189    0.335520     0.007504
PD1106   PD        0.201230    0.369842    0.334296     0.005394
PD1107   PD        0.202527    0.404813    0.303449     0.005394
PD1108   PD        0.234591    0.373317    0.302682     0.005394
PD1109   PD        0.235552    0.404305    0.338613     0.005394
AU1110   AU        0.268387    0.369415    0.333805     0.007504
PD1111   PD        0.270743    0.404246    0.299494     0.005394
PD1112   PD        0.304033    0.369851    0.304301     0.005394
PD1113   PD        0.302510    0.400743    0.335628     0.005394
PD1114   PD        0.337925    0.370678    0.338941     0.005394
PD1115   PD        0.335128    0.402427    0.305433     0.005394
AU1116   AU        0.368674    0.372338    0.303627     0.007504
AU1117   AU        0.370053    0.404104    0.337065     0.007504
AU1118   AU        0.403791    0.372028    0.334098     0.007504
AU1119   AU        0.404164    0.406455    0.304479     0.007504
AU1120   AU        0.436273    0.369410    0.304241     0.007504
PD1121   PD        0.436258    0.405561    0.336693     0.005394
AU1122   AU        0.470119    0.372419    0.336417     0.007504
AU1123   AU        0.468215    0.406902    0.302418     0.007504
AU1124   AU        0.502022    0.371324    0.304530     0.007504
AU1125   AU        0.503581    0.406399    0.337399     0.007504
AU1126   AU        0.536558    0.374210    0.336969     0.007504
AU1127   AU        0.537448    0.406324    0.302844     0.007504
AU1128   AU        0.568056    0.371064    0.304836     0.007504
AU1129   AU        0.569929    0.407223    0.335692     0.007504
AU1130   AU        0.602471    0.372990    0.335868     0.007504
AU1131   AU        0.600210    0.406209    0.301698     0.007504
AU1132   AU        0.635427    0.374238    0.301666     0.007504
AU1133   AU        0.634769    0.406037    0.333693     0.007504
PD1134   PD        0.667543    0.373073    0.334461     0.005394
PD1135   PD        0.668390    0.405159    0.300706     0.005394
AU1136   AU        0.702561    0.373115    0.303867     0.007504
AU1137   AU        0.701347    0.404533    0.337768     0.007504
AU1138   AU        0.735206    0.373020    0.335375     0.007504
AU1139   AU        0.731593    0.405024    0.302287     0.007504
AU1140   AU        0.766172    0.372278    0.304252     0.007504
AU1141   AU        0.766966    0.407268    0.336080     0.007504
PD1142   PD        0.800733    0.373226    0.337109     0.005394
AU1143   AU        0.799182    0.405190    0.302135     0.007504
PD1144   PD        0.067727    0.434260    0.338174     0.005394
AU1145   AU        0.067214    0.471512    0.304279     0.007504
AU1146   AU        0.101123    0.436966    0.305982     0.007504
AU1147   AU        0.101519    0.469367    0.336096     0.007504
AU1148   AU        0.136873    0.436554    0.337571     0.007504
AU1149   AU        0.134677    0.468860    0.302687     0.007504
PD1150   PD        0.170746    0.438510    0.306010     0.005394
PD1151   PD        0.168558    0.471962    0.334986     0.005394
AU1152   AU        0.202136    0.436687    0.337472     0.007504
PD1153   PD        0.200915    0.470805    0.304655     0.005394
PD1154   PD        0.238150    0.438530    0.304445     0.005394
PD1155   PD        0.238040    0.468173    0.337033     0.005394
AU1156   AU        0.270936    0.436844    0.335506     0.007504
PD1157   PD        0.271885    0.471576    0.303443     0.005394
PD1158   PD        0.302113    0.439478    0.300907     0.005394
AU1159   AU        0.304592    0.472177    0.337545     0.007504
PD1160   PD        0.336528    0.434257    0.336207     0.005394
AU1161   AU        0.336031    0.469719    0.303143     0.007504
PD1162   PD        0.371001    0.437149    0.300998     0.005394
PD1163   PD        0.371727    0.471765    0.334279     0.005394
AU1164   AU        0.404297    0.439363    0.336488     0.007504
PD1165   PD        0.404018    0.470530    0.303356     0.005394
AU1166   AU        0.437472    0.437279    0.302815     0.007504
AU1167   AU        0.439309    0.470496    0.335176     0.007504
AU1168   AU        0.471096    0.438534    0.336875     0.007504
AU1169   AU        0.469830    0.469768    0.301585     0.007504
PD1170   PD        0.502709    0.438264    0.300922     0.005394
AU1171   AU        0.501652    0.471409    0.333819     0.007504
AU1172   AU        0.535525    0.437932    0.334404     0.007504
PD1173   PD        0.535304    0.471968    0.301740     0.005394
AU1174   AU        0.568644    0.440176    0.301324     0.007504
AU1175   AU        0.568906    0.470933    0.334662     0.007504
AU1176   AU        0.602046    0.438389    0.333724     0.007504
AU1177   AU        0.601876    0.471397    0.301034     0.007504
AU1178   AU        0.635734    0.439348    0.302721     0.007504
AU1179   AU        0.633388    0.471942    0.333919     0.007504
AU1180   AU        0.668302    0.439377    0.334233     0.007504
AU1181   AU        0.667289    0.472732    0.302362     0.007504
AU1182   AU        0.700908    0.438697    0.300570     0.007504
AU1183   AU        0.699533    0.471299    0.332660     0.007504
AU1184   AU        0.733393    0.437226    0.336132     0.007504
AU1185   AU        0.735008    0.469952    0.302788     0.007504
AU1186   AU        0.766397    0.437711    0.302301     0.007504
AU1187   AU        0.767645    0.468804    0.335214     0.007504
AU1188   AU        0.801957    0.438583    0.336200     0.007504
AU1189   AU        0.802773    0.467521    0.303617     0.007504
AU1190   AU        0.070759    0.503495    0.338433     0.007504
PD1191   PD        0.074007    0.536613    0.304278     0.005394
AU1192   AU        0.101382    0.503499    0.303441     0.007504
AU1193   AU        0.104483    0.536489    0.338093     0.007504
AU1194   AU        0.135250    0.503145    0.335477     0.007504
PD1195   PD        0.139714    0.534518    0.302115     0.005394
PD1196   PD        0.170322    0.503405    0.301811     0.005394
PD1197   PD        0.170121    0.536395    0.336576     0.005394
PD1198   PD        0.202319    0.502729    0.337854     0.005394
PD1199   PD        0.203992    0.535402    0.304254     0.005394
AU1200   AU        0.237412    0.503110    0.305295     0.007504
AU1201   AU        0.235950    0.534786    0.337494     0.007504
AU1202   AU        0.271210    0.502916    0.338309     0.007504
AU1203   AU        0.270019    0.537224    0.305242     0.007504
PD1204   PD        0.303564    0.504703    0.304816     0.005394
AU1205   AU        0.303494    0.538591    0.338669     0.007504
PD1206   PD        0.337235    0.504598    0.336238     0.005394
AU1207   AU        0.336685    0.538278    0.304027     0.007504
AU1208   AU        0.371223    0.504774    0.304357     0.007504
PD1209   PD        0.370782    0.536678    0.338262     0.005394
AU1210   AU        0.404243    0.503937    0.336051     0.007504
AU1211   AU        0.403472    0.537340    0.303954     0.007504
PD1212   PD        0.436678    0.503798    0.304894     0.005394
AU1213   AU        0.437929    0.538021    0.336641     0.007504
AU1214   AU        0.470624    0.504467    0.334269     0.007504
PD1215   PD        0.471879    0.537727    0.302602     0.005394
PD1216   PD        0.504292    0.504776    0.302407     0.005394
AU1217   AU        0.504326    0.538117    0.336700     0.007504
AU1218   AU        0.535812    0.505200    0.334848     0.007504
AU1219   AU        0.534711    0.538532    0.302521     0.007504
AU1220   AU        0.568482    0.503348    0.300988     0.007504
PD1221   PD        0.568128    0.535891    0.334060     0.005394
PD1222   PD        0.601840    0.502123    0.334086     0.005394
AU1223   AU        0.600697    0.536979    0.303198     0.007504
AU1224   AU        0.634800    0.503852    0.301228     0.007504
AU1225   AU        0.635161    0.536799    0.334803     0.007504
AU1226   AU        0.667437    0.503427    0.337202     0.007504
AU1227   AU        0.669040    0.535582    0.302420     0.007504
AU1228   AU        0.701769    0.503869    0.303032     0.007504
PD1229   PD        0.701031    0.535819    0.337656     0.005394
AU1230   AU        0.734231    0.502718    0.336280     0.007504
AU1231   AU        0.734671    0.534978    0.303946     0.007504
AU1232   AU        0.768723    0.503193    0.305027     0.007504
AU1233   AU        0.767643    0.536955    0.337681     0.007504
AU1234   AU        0.802026    0.503511    0.335275     0.007504
PD1235   PD        0.879692    0.554226    0.322085     0.005394
PD1236   PD        0.037706    0.569207    0.369956     0.005394
PD1237   PD        0.106408    0.568644    0.307223     0.005394
AU1238   AU        0.103379    0.603505    0.338979     0.007504
PD1239   PD        0.137412    0.569635    0.338218     0.005394
PD1240   PD        0.134489    0.605666    0.305748     0.005394
PD1241   PD        0.168706    0.571464    0.304684     0.005394
PD1242   PD        0.170267    0.603239    0.334703     0.005394
PD1243   PD        0.203050    0.566225    0.337572     0.005394
PD1244   PD        0.206388    0.602838    0.306363     0.005394
AU1245   AU        0.237371    0.569026    0.304512     0.007504
PD1246   PD        0.236561    0.604077    0.339691     0.005394
PD1247   PD        0.270329    0.569546    0.336921     0.005394
AU1248   AU        0.271726    0.605326    0.303685     0.007504
AU1249   AU        0.303507    0.570860    0.303276     0.007504
AU1250   AU        0.303646    0.602340    0.335596     0.007504
PD1251   PD        0.336222    0.571574    0.336149     0.005394
AU1252   AU        0.335995    0.605510    0.301932     0.007504
PD1253   PD        0.371639    0.567909    0.304404     0.005394
PD1254   PD        0.371169    0.604239    0.335477     0.005394
AU1255   AU        0.403008    0.570279    0.337674     0.007504
AU1256   AU        0.403835    0.603011    0.302872     0.007504
PD1257   PD        0.436587    0.571811    0.303270     0.005394
PD1258   PD        0.436164    0.605322    0.334307     0.005394
AU1259   AU        0.472251    0.571698    0.333977     0.007504
PD1260   PD        0.471662    0.606410    0.304472     0.005394
AU1261   AU        0.502464    0.571664    0.301259     0.007504
PD1262   PD        0.502784    0.604918    0.336861     0.005394
AU1263   AU        0.536013    0.571184    0.336387     0.007504
AU1264   AU        0.534505    0.602570    0.302853     0.007504
AU1265   AU        0.569094    0.570665    0.301846     0.007504
PD1266   PD        0.568844    0.604122    0.333459     0.005394
AU1267   AU        0.600919    0.568693    0.335704     0.007504
AU1268   AU        0.603104    0.603399    0.300115     0.007504
PD1269   PD        0.633035    0.569380    0.300999     0.005394
PD1270   PD        0.635519    0.601437    0.333510     0.005394
PD1271   PD        0.668527    0.569933    0.335555     0.005394
AU1272   AU        0.669560    0.605169    0.302331     0.007504
AU1273   AU        0.702964    0.570097    0.303207     0.007504
PD1274   PD        0.702762    0.604443    0.334934     0.005394
AU1275   AU        0.735595    0.569185    0.336820     0.007504
PD1276   PD        0.735398    0.605163    0.303162     0.005394
AU1277   AU        0.767212    0.568721    0.303803     0.007504
AU1278   AU        0.768510    0.603525    0.333866     0.007504
PD1279   PD        0.801180    0.571098    0.334923     0.005394
PD1280   PD        0.137090    0.636652    0.339387     0.005394
PD1281   PD        0.137080    0.670476    0.308465     0.005394
AU1282   AU        0.173805    0.635895    0.302945     0.007504
PD1283   PD        0.170873    0.668857    0.337275     0.005394
AU1284   AU        0.204493    0.637650    0.337919     0.007504
PD1285   PD        0.205913    0.670844    0.302208     0.005394
AU1286   AU        0.237222    0.638343    0.302043     0.007504
PD1287   PD        0.237888    0.672183    0.336632     0.005394
AU1288   AU        0.273615    0.636326    0.336092     0.007504
PD1289   PD        0.269162    0.670059    0.302956     0.005394
AU1290   AU        0.305481    0.638522    0.302082     0.007504
PD1291   PD        0.304626    0.670203    0.335966     0.005394
PD1292   PD        0.337477    0.637698    0.335357     0.005394
AU1293   AU        0.338204    0.670009    0.303515     0.007504
AU1294   AU        0.368603    0.637690    0.305081     0.007504
PD1295   PD        0.369961    0.669345    0.335012     0.005394
PD1296   PD        0.404010    0.636937    0.334994     0.005394
AU1297   AU        0.405586    0.669124    0.302495     0.007504
PD1298   PD        0.435510    0.635585    0.303096     0.005394
AU1299   AU        0.435894    0.670068    0.335088     0.007504
AU1300   AU        0.469355    0.636888    0.336162     0.007504
AU1301   AU        0.469837    0.668926    0.303253     0.007504
AU1302   AU        0.502672    0.638112    0.302797     0.007504
AU1303   AU        0.502471    0.671442    0.332854     0.007504
AU1304   AU        0.536069    0.635689    0.335707     0.007504
AU1305   AU        0.534835    0.670446    0.303102     0.007504
AU1306   AU        0.569676    0.635191    0.301481     0.007504
PD1307   PD        0.568512    0.669051    0.334850     0.005394
PD1308   PD        0.605417    0.637228    0.333957     0.005394
AU1309   AU        0.601155    0.670492    0.303056     0.007504
PD1310   PD        0.634390    0.637848    0.299801     0.005394
AU1311   AU        0.634142    0.669733    0.336831     0.007504
PD1312   PD        0.668591    0.636963    0.336303     0.005394
AU1313   AU        0.665421    0.670039    0.303736     0.007504
AU1314   AU        0.702047    0.639128    0.302886     0.007504
AU1315   AU        0.701311    0.671569    0.336413     0.007504
AU1316   AU        0.734476    0.636292    0.336626     0.007504
PD1317   PD        0.737558    0.669056    0.302807     0.005394
PD1318   PD        0.173332    0.702369    0.299696     0.005394
PD1319   PD        0.203088    0.701561    0.335227     0.005394
PD1320   PD        0.209699    0.774792    0.270171     0.005394
AU1321   AU        0.237466    0.703827    0.304883     0.007504
AU1322   AU        0.235673    0.736559    0.335189     0.007504
AU1323   AU        0.269462    0.703283    0.337453     0.007504
PD1324   PD        0.272748    0.734719    0.304344     0.005394
PD1325   PD        0.302012    0.701178    0.304723     0.005394
PD1326   PD        0.304855    0.736350    0.337075     0.005394
AU1327   AU        0.337040    0.702763    0.336603     0.007504
PD1328   PD        0.338199    0.733670    0.303868     0.005394
AU1329   AU        0.370522    0.703832    0.302582     0.007504
AU1330   AU        0.372830    0.735996    0.336087     0.007504
AU1331   AU        0.404488    0.703687    0.335086     0.007504
PD1332   PD        0.402734    0.736641    0.301280     0.005394
PD1333   PD        0.437113    0.702517    0.304524     0.005394
PD1334   PD        0.438042    0.735374    0.337059     0.005394
PD1335   PD        0.469515    0.704704    0.334461     0.005394
PD1336   PD        0.471387    0.738153    0.302289     0.005394
AU1337   AU        0.505021    0.704480    0.302160     0.007504
PD1338   PD        0.503524    0.734609    0.336649     0.005394
AU1339   AU        0.538062    0.703592    0.335881     0.007504
PD1340   PD        0.536517    0.735305    0.302800     0.005394
AU1341   AU        0.570361    0.702274    0.302425     0.007504
AU1342   AU        0.567765    0.737255    0.335294     0.007504
AU1343   AU        0.601655    0.704435    0.336059     0.007504
AU1344   AU        0.602591    0.735820    0.303758     0.007504
AU1345   AU        0.633818    0.703001    0.302414     0.007504
AU1346   AU        0.635081    0.736359    0.337572     0.007504
AU1347   AU        0.668549    0.701566    0.335925     0.007504
PD1348   PD        0.672110    0.735019    0.303115     0.005394
PD1349   PD        0.701669    0.700493    0.303407     0.005394
AU1350   AU        0.272465    0.767995    0.335964     0.007504
AU1351   AU        0.303119    0.769687    0.302661     0.007504
AU1352   AU        0.301695    0.801618    0.336985     0.007504
AU1353   AU        0.334722    0.767807    0.336017     0.007504
PD1354   PD        0.338628    0.800934    0.302079     0.005394
AU1355   AU        0.370057    0.767820    0.304867     0.007504
AU1356   AU        0.371831    0.800701    0.334915     0.007504
AU1357   AU        0.405057    0.769713    0.335443     0.007504
AU1358   AU        0.404922    0.802273    0.304074     0.007504
AU1359   AU        0.436968    0.769592    0.301848     0.007504
AU1360   AU        0.439253    0.801741    0.333746     0.007504
AU1361   AU        0.469542    0.769898    0.335480     0.007504
AU1362   AU        0.469923    0.801858    0.300255     0.007504
AU1363   AU        0.502758    0.767098    0.301744     0.007504
AU1364   AU        0.504058    0.802357    0.336627     0.007504
AU1365   AU        0.534276    0.769298    0.336782     0.007504
PD1366   PD        0.534227    0.799883    0.302477     0.005394
AU1367   AU        0.570597    0.771080    0.302851     0.007504
AU1368   AU        0.568300    0.801806    0.336242     0.007504
AU1369   AU        0.602749    0.768984    0.337349     0.007504
PD1370   PD        0.272001    0.070113    0.374780     0.005394
PD1371   PD        0.302308    0.073654    0.404133     0.005394
PD1372   PD        0.334944    0.072393    0.367738     0.005394
AU1373   AU        0.367988    0.074412    0.401099     0.007504
PD1374   PD        0.401551    0.042775    0.405193     0.005394
PD1375   PD        0.401218    0.071733    0.367426     0.005394
AU1376   AU        0.434168    0.039991    0.369676     0.007504
AU1377   AU        0.434010    0.073323    0.401182     0.007504
PD1378   PD        0.467948    0.041428    0.400231     0.005394
PD1379   PD        0.470297    0.071145    0.370474     0.005394
PD1380   PD        0.502084    0.072580    0.403743     0.005394
AU1381   AU        0.535724    0.075177    0.369770     0.007504
PD1382   PD        0.566899    0.074880    0.399988     0.005394
PD1383   PD        0.605780    0.077006    0.368639     0.005394
PD1384   PD        0.171258    0.104522    0.432687     0.005394
PD1385   PD        0.204716    0.104433    0.402053     0.005394
PD1386   PD        0.203991    0.138854    0.368594     0.005394
PD1387   PD        0.235062    0.104244    0.369868     0.005394
AU1388   AU        0.235730    0.137217    0.403375     0.007504
AU1389   AU        0.268416    0.103750    0.402590     0.007504
AU1390   AU        0.267331    0.137851    0.369634     0.007504
AU1391   AU        0.301687    0.104811    0.368992     0.007504
PD1392   PD        0.299771    0.138257    0.401759     0.005394
AU1393   AU        0.333390    0.105258    0.401599     0.007504
AU1394   AU        0.333326    0.141359    0.368395     0.007504
PD1395   PD        0.365013    0.107021    0.370074     0.005394
AU1396   AU        0.366660    0.138873    0.402725     0.007504
PD1397   PD        0.401547    0.105859    0.400426     0.005394
AU1398   AU        0.402299    0.138216    0.369505     0.007504
PD1399   PD        0.432259    0.102661    0.367691     0.005394
AU1400   AU        0.434940    0.135390    0.401194     0.007504
PD1401   PD        0.469576    0.104255    0.401680     0.005394
AU1402   AU        0.468630    0.139728    0.368171     0.007504
AU1403   AU        0.503108    0.105242    0.370189     0.007504
PD1404   PD        0.500610    0.138375    0.400453     0.005394
AU1405   AU        0.534407    0.106299    0.401456     0.007504
AU1406   AU        0.536847    0.141115    0.368855     0.007504
AU1407   AU        0.567583    0.106857    0.367550     0.007504
PD1408   PD        0.569266    0.134790    0.404377     0.005394
PD1409   PD        0.602025    0.102628    0.403157     0.005394
AU1410   AU        0.599870    0.140200    0.370644     0.007504
PD1411   PD        0.638164    0.038207    0.434751     0.005394
PD1412   PD        0.633732    0.136979    0.402068     0.005394
PD1413   PD        0.665953    0.110336    0.401686     0.005394
PD1414   PD        0.666362    0.138136    0.366100     0.005394
AU1415   AU        0.700978    0.141101    0.401957     0.007504
PD1416   PD        0.075682    0.193856    0.376423     0.005394
PD1417   PD        0.135985    0.169171    0.405050     0.005394
PD1418   PD        0.135792    0.203911    0.367623     0.005394
PD1419   PD        0.167298    0.174274    0.371060     0.005394
AU1420   AU        0.171240    0.205443    0.402967     0.007504
AU1421   AU        0.203793    0.172213    0.404153     0.007504
AU1422   AU        0.202970    0.202780    0.369785     0.007504
AU1423   AU        0.235081    0.171383    0.368386     0.007504
AU1424   AU        0.237110    0.204496    0.401797     0.007504
AU1425   AU        0.267880    0.171502    0.403213     0.007504
PD1426   PD        0.269883    0.203326    0.369907     0.005394
AU1427   AU        0.300166    0.172524    0.369547     0.007504
PD1428   PD        0.301622    0.204299    0.402740     0.005394
AU1429   AU        0.334937    0.171704    0.402584     0.007504
AU1430   AU        0.333793    0.204825    0.371227     0.007504
PD1431   PD        0.366851    0.171167    0.367170     0.005394
PD1432   PD        0.370915    0.204793    0.403704     0.005394
PD1433   PD        0.402716    0.172488    0.401557     0.005394
PD1434   PD        0.403464    0.204378    0.368921     0.005394
AU1435   AU        0.435277    0.172187    0.370568     0.007504
AU1436   AU        0.435426    0.204468    0.404420     0.007504
PD1437   PD        0.468445    0.171604    0.403470     0.005394
PD1438   PD        0.467560    0.203390    0.367783     0.005394
AU1439   AU        0.502090    0.169973    0.366442     0.007504
PD1440   PD        0.501027    0.204199    0.400180     0.005394
PD1441   PD        0.534464    0.169740    0.402943     0.005394
PD1442   PD        0.534287    0.205945    0.368857     0.005394
PD1443   PD        0.569428    0.172229    0.369151     0.005394
PD1444   PD        0.567024    0.204971    0.404439     0.005394
PD1445   PD        0.597501    0.172487    0.402370     0.005394
PD1446   PD        0.601873    0.205047    0.369310     0.005394
PD1447   PD        0.635049    0.174507    0.368345     0.005394
AU1448   AU        0.630329    0.204448    0.403267     0.007504
AU1449   AU        0.667407    0.171143    0.402854     0.007504
AU1450   AU        0.670496    0.206074    0.367504     0.007504
PD1451   PD        0.699822    0.170530    0.366882     0.005394
AU1452   AU        0.701722    0.203487    0.399768     0.007504
PD1453   PD        0.757028    0.124691    0.381143     0.005394
AU1454   AU        0.734323    0.203212    0.369548     0.007504
PD1455   PD        0.768521    0.170018    0.374356     0.005394
PD1456   PD        0.071414    0.272170    0.371302     0.005394
PD1457   PD        0.102562    0.237147    0.369618     0.005394
PD1458   PD        0.104416    0.270191    0.401995     0.005394
AU1459   AU        0.137154    0.237064    0.402196     0.007504
AU1460   AU        0.136441    0.270519    0.366813     0.007504
PD1461   PD        0.170868    0.237516    0.366928     0.005394
PD1462   PD        0.167373    0.269506    0.400721     0.005394
AU1463   AU        0.201885    0.238217    0.403973     0.007504
PD1464   PD        0.205125    0.272572    0.369531     0.005394
PD1465   PD        0.235905    0.239516    0.369359     0.005394
AU1466   AU        0.235192    0.271204    0.404899     0.007504
PD1467   PD        0.269967    0.239871    0.402322     0.005394
PD1468   PD        0.271585    0.273069    0.371839     0.005394
PD1469   PD        0.300545    0.236796    0.368212     0.005394
AU1470   AU        0.301986    0.271252    0.403675     0.007504
AU1471   AU        0.335473    0.236662    0.404404     0.007504
AU1472   AU        0.334976    0.271594    0.371771     0.007504
AU1473   AU        0.368903    0.238283    0.370277     0.007504
PD1474   PD        0.368417    0.270912    0.403075     0.005394
PD1475   PD        0.404062    0.236243    0.402259     0.005394
AU1476   AU        0.401568    0.271334    0.369538     0.007504
AU1477   AU        0.434847    0.236889    0.368304     0.007504
PD1478   PD        0.436361    0.269567    0.398195     0.005394
PD1479   PD        0.467565    0.237195    0.400820     0.005394
PD1480   PD        0.466040    0.268422    0.367221     0.005394
PD1481   PD        0.501334    0.238716    0.370098     0.005394
AU1482   AU        0.502631    0.273215    0.402229     0.007504
PD1483   PD        0.534822    0.238009    0.403707     0.005394
AU1484   AU        0.534302    0.272213    0.369305     0.007504
PD1485   PD        0.572234    0.238737    0.371448     0.005394
PD1486   PD        0.567325    0.274804    0.404259     0.005394
PD1487   PD        0.600563    0.240026    0.401127     0.005394
AU1488   AU        0.601582    0.272754    0.369256     0.007504
AU1489   AU        0.636861    0.239496    0.369367     0.007504
AU1490   AU        0.633668    0.271687    0.401537     0.007504
PD1491   PD        0.670786    0.237980    0.404373     0.005394
PD1492   PD        0.669817    0.271099    0.370281     0.005394
PD1493   PD        0.704055    0.236216    0.368300     0.005394
PD1494   PD        0.699297    0.272625    0.402560     0.005394
PD1495   PD        0.734509    0.238186    0.402426     0.005394
PD1496   PD        0.732734    0.272627    0.371216     0.005394
PD1497   PD        0.767177    0.233625    0.370846     0.005394
PD1498   PD        0.769076    0.271047    0.400241     0.005394
PD1499   PD        0.804563    0.271442    0.373667     0.005394
PD1500   PD        0.072717    0.305742    0.404734     0.005394
AU1501   AU        0.072130    0.336736    0.370037     0.007504
PD1502   PD        0.104059    0.304531    0.368472     0.005394
AU1503   AU        0.104566    0.335260    0.403617     0.007504
AU1504   AU        0.136617    0.302752    0.401490     0.007504
AU1505   AU        0.136243    0.336662    0.369700     0.007504
PD1506   PD        0.168794    0.306633    0.369256     0.005394
PD1507   PD        0.169439    0.333841    0.402804     0.005394
PD1508   PD        0.202713    0.303594    0.405870     0.005394
AU1509   AU        0.202542    0.337302    0.368834     0.007504
PD1510   PD        0.234041    0.304880    0.370516     0.005394
AU1511   AU        0.236838    0.337520    0.403388     0.007504
PD1512   PD        0.271653    0.304776    0.404941     0.005394
AU1513   AU        0.267390    0.338094    0.369666     0.007504
AU1514   AU        0.301845    0.306860    0.370386     0.007504
AU1515   AU        0.301628    0.338358    0.404090     0.007504
PD1516   PD        0.334927    0.306429    0.402401     0.005394
AU1517   AU        0.335532    0.338301    0.368152     0.007504
PD1518   PD        0.368341    0.303466    0.369805     0.005394
PD1519   PD        0.369936    0.336638    0.400090     0.005394
AU1520   AU        0.402368    0.304621    0.403042     0.007504
PD1521   PD        0.403693    0.337996    0.369918     0.005394
PD1522   PD        0.435960    0.304253    0.367457     0.005394
PD1523   PD        0.437587    0.339621    0.401552     0.005394
PD1524   PD        0.467268    0.302753    0.402948     0.005394
PD1525   PD        0.470746    0.339523    0.368262     0.005394
PD1526   PD        0.500486    0.305293    0.368255     0.005394
PD1527   PD        0.501953    0.336981    0.404095     0.005394
AU1528   AU        0.535287    0.306087    0.403376     0.007504
PD1529   PD        0.537164    0.338712    0.370983     0.005394
PD1530   PD        0.569004    0.305527    0.369432     0.005394
AU1531   AU        0.569511    0.338809    0.401043     0.007504
AU1532   AU        0.601128    0.306422    0.400907     0.007504
AU1533   AU        0.602489    0.340844    0.369369     0.007504
PD1534   PD        0.635003    0.305701    0.370162     0.005394
AU1535   AU        0.634983    0.339877    0.402621     0.007504
AU1536   AU        0.667771    0.305028    0.402622     0.007504
PD1537   PD        0.666420    0.340776    0.369891     0.005394
AU1538   AU        0.702010    0.305094    0.369050     0.007504
AU1539   AU        0.701084    0.337976    0.399921     0.007504
AU1540   AU        0.735808    0.307147    0.403233     0.007504
AU1541   AU        0.735354    0.340632    0.369335     0.007504
PD1542   PD        0.767949    0.307036    0.371144     0.005394
AU1543   AU        0.767518    0.340085    0.402212     0.007504
PD1544   PD        0.799852    0.306431    0.401778     0.005394
AU1545   AU        0.798656    0.340005    0.370581     0.007504
PD1546   PD        0.040492    0.401987    0.402233     0.005394
AU1547   AU        0.071991    0.368343    0.401401     0.007504
AU1548   AU        0.071327    0.402415    0.370276     0.007504
PD1549   PD        0.105685    0.370891    0.370508     0.005394
PD1550   PD        0.104914    0.404380    0.403451     0.005394
AU1551   AU        0.138622    0.369504    0.403217     0.007504
AU1552   AU        0.134928    0.402325    0.367988     0.007504
AU1553   AU        0.168422    0.370907    0.369650     0.007504
PD1554   PD        0.168552    0.403666    0.400097     0.005394
AU1555   AU        0.203198    0.371651    0.401870     0.007504
PD1556   PD        0.201317    0.405346    0.368674     0.005394
AU1557   AU        0.237414    0.370981    0.368200     0.007504
AU1558   AU        0.237277    0.404236    0.403131     0.007504
AU1559   AU        0.269751    0.370916    0.403057     0.007504
PD1560   PD        0.269479    0.400404    0.367247     0.005394
PD1561   PD        0.301371    0.369367    0.368131     0.005394
PD1562   PD        0.301420    0.402039    0.401662     0.005394
AU1563   AU        0.334521    0.370293    0.404281     0.007504
PD1564   PD        0.333967    0.401034    0.371687     0.005394
AU1565   AU        0.370803    0.371854    0.370921     0.007504
PD1566   PD        0.368476    0.402598    0.403745     0.005394
PD1567   PD        0.406041    0.369957    0.402287     0.005394
AU1568   AU        0.402887    0.404983    0.369711     0.007504
AU1569   AU        0.436860    0.372673    0.365807     0.007504
AU1570   AU        0.439185    0.405111    0.402487     0.007504
AU1571   AU        0.469858    0.371617    0.401460     0.007504
AU1572   AU        0.469455    0.405623    0.368813     0.007504
AU1573   AU        0.504700    0.373229    0.369615     0.007504
AU1574   AU        0.502316    0.403767    0.402444     0.007504
AU1575   AU        0.537496    0.373445    0.403452     0.007504
AU1576   AU        0.537169    0.407013    0.369910     0.007504
AU1577   AU        0.569261    0.373704    0.367996     0.007504
AU1578   AU        0.570542    0.406868    0.403623     0.007504
PD1579   PD        0.601189    0.372934    0.401027     0.005394
PD1580   PD        0.602927    0.404905    0.367510     0.005394
AU1581   AU        0.636028    0.373172    0.369086     0.007504
AU1582   AU        0.634106    0.404266    0.402322     0.007504
PD1583   PD        0.669530    0.373519    0.400792     0.005394
AU1584   AU        0.666282    0.405985    0.367812     0.007504
AU1585   AU        0.702104    0.371359    0.368991     0.007504
PD1586   PD        0.701981    0.405720    0.402322     0.005394
PD1587   PD        0.733174    0.371217    0.402249     0.005394
AU1588   AU        0.733153    0.404770    0.370247     0.007504
AU1589   AU        0.768271    0.373502    0.369333     0.007504
PD1590   PD        0.766556    0.403801    0.403901     0.005394
AU1591   AU        0.801591    0.373491    0.406411     0.007504
PD1592   PD        0.800953    0.407681    0.368863     0.005394
PD1593   PD        0.834018    0.404605    0.405110     0.005394
PD1594   PD        0.001871    0.473343    0.365759     0.005394
PD1595   PD        0.037623    0.475276    0.407863     0.005394
AU1596   AU        0.071109    0.436909    0.402184     0.007504
AU1597   AU        0.069537    0.470176    0.369805     0.007504
AU1598   AU        0.103676    0.435866    0.370919     0.007504
AU1599   AU        0.105065    0.468742    0.401255     0.007504
PD1600   PD        0.136573    0.436137    0.401111     0.005394
PD1601   PD        0.135690    0.470950    0.369627     0.005394
AU1602   AU        0.169076    0.436887    0.368978     0.007504
AU1603   AU        0.168368    0.470737    0.401635     0.007504
PD1604   PD        0.203402    0.437582    0.402249     0.005394
AU1605   AU        0.202811    0.470559    0.370870     0.007504
AU1606   AU        0.237296    0.438691    0.368864     0.007504
AU1607   AU        0.237190    0.468040    0.402084     0.007504
PD1608   PD        0.268992    0.437525    0.402223     0.005394
AU1609   AU        0.270586    0.469031    0.370591     0.007504
PD1610   PD        0.301819    0.436253    0.371622     0.005394
AU1611   AU        0.303349    0.470435    0.401568     0.007504
PD1612   PD        0.339754    0.436292    0.403354     0.005394
PD1613   PD        0.336408    0.466857    0.371925     0.005394
PD1614   PD        0.370365    0.437139    0.369680     0.005394
PD1615   PD        0.371199    0.469759    0.403628     0.005394
PD1616   PD        0.402777    0.438777    0.403849     0.005394
AU1617   AU        0.403959    0.470564    0.368347     0.007504
AU1618   AU        0.435937    0.440157    0.368223     0.007504
AU1619   AU        0.434699    0.472088    0.402023     0.007504
PD1620   PD        0.468873    0.438192    0.403286     0.005394
AU1621   AU        0.470320    0.471283    0.370033     0.007504
AU1622   AU        0.503529    0.439012    0.368256     0.007504
AU1623   AU        0.504257    0.470266    0.401389     0.007504
AU1624   AU        0.535874    0.438055    0.404023     0.007504
AU1625   AU        0.537675    0.469630    0.366990     0.007504
PD1626   PD        0.571086    0.438079    0.368227     0.005394
PD1627   PD        0.567966    0.470988    0.401957     0.005394
PD1628   PD        0.602630    0.439478    0.403762     0.005394
AU1629   AU        0.602267    0.471203    0.369085     0.007504
AU1630   AU        0.632793    0.438123    0.366862     0.007504
AU1631   AU        0.636236    0.470538    0.403389     0.007504
PD1632   PD        0.667701    0.438154    0.400752     0.005394
AU1633   AU        0.667703    0.469138    0.366723     0.007504
PD1634   PD        0.700766    0.437452    0.368139     0.005394
AU1635   AU        0.701213    0.470075    0.403386     0.007504
PD1636   PD        0.734801    0.438553    0.402899     0.005394
AU1637   AU        0.734858    0.469395    0.369320     0.007504
AU1638   AU        0.767068    0.438117    0.368544     0.007504
AU1639   AU        0.767997    0.472794    0.400526     0.007504
AU1640   AU        0.800691    0.436837    0.404694     0.007504
AU1641   AU        0.802589    0.469917    0.371276     0.007504
PD1642   PD        0.832604    0.401651    0.335993     0.005394
AU1643   AU        0.832612    0.472696    0.404960     0.007504
AU1644   AU        0.073961    0.501727    0.403848     0.007504
PD1645   PD        0.070077    0.536809    0.374911     0.005394
PD1646   PD        0.105336    0.503601    0.368604     0.005394
PD1647   PD        0.104720    0.536838    0.400330     0.005394
PD1648   PD        0.137047    0.505403    0.403447     0.005394
PD1649   PD        0.136945    0.537532    0.370296     0.005394
AU1650   AU        0.167500    0.505224    0.369016     0.007504
AU1651   AU        0.169257    0.536389    0.401714     0.007504
PD1652   PD        0.204789    0.502517    0.404223     0.005394
AU1653   AU        0.203538    0.535240    0.372070     0.007504
AU1654   AU        0.236828    0.502905    0.370747     0.007504
AU1655   AU        0.237597    0.536875    0.403222     0.007504
AU1656   AU        0.271351    0.504640    0.402027     0.007504
AU1657   AU        0.268562    0.537576    0.370726     0.007504
AU1658   AU        0.302852    0.505091    0.370981     0.007504
AU1659   AU        0.302997    0.539134    0.403069     0.007504
PD1660   PD        0.337226    0.503408    0.403109     0.005394
AU1661   AU        0.336787    0.537069    0.370653     0.007504
PD1662   PD        0.369110    0.501970    0.371454     0.005394
PD1663   PD        0.368589    0.535197    0.403784     0.005394
PD1664   PD        0.406529    0.503962    0.401167     0.005394
AU1665   AU        0.403828    0.536013    0.368809     0.007504
AU1666   AU        0.437072    0.504370    0.366647     0.007504
AU1667   AU        0.436636    0.536549    0.401871     0.007504
AU1668   AU        0.470767    0.503730    0.400827     0.007504
AU1669   AU        0.471858    0.538265    0.370165     0.007504
AU1670   AU        0.505076    0.501919    0.368904     0.007504
PD1671   PD        0.505428    0.535111    0.403286     0.005394
AU1672   AU        0.537403    0.501602    0.402182     0.007504
PD1673   PD        0.536332    0.535424    0.370925     0.005394
PD1674   PD        0.569894    0.503191    0.367351     0.005394
AU1675   AU        0.569816    0.534928    0.401231     0.007504
AU1676   AU        0.600910    0.504914    0.401114     0.007504
AU1677   AU        0.602256    0.535446    0.368053     0.007504
AU1678   AU        0.634741    0.503687    0.368483     0.007504
AU1679   AU        0.635511    0.536209    0.399937     0.007504
PD1680   PD        0.666557    0.503777    0.401791     0.005394
AU1681   AU        0.669044    0.536526    0.369645     0.007504
PD1682   PD        0.702559    0.504056    0.371628     0.005394
PD1683   PD        0.702621    0.537411    0.403036     0.005394
PD1684   PD        0.737006    0.503063    0.401762     0.005394
AU1685   AU        0.735837    0.535648    0.369595     0.007504
AU1686   AU        0.769191    0.502674    0.367602     0.007504
AU1687   AU        0.767124    0.538017    0.401639     0.007504
PD1688   PD        0.798881    0.505006    0.404381     0.005394
AU1689   AU        0.803279    0.535396    0.368125     0.007504
AU1690   AU        0.072401    0.569850    0.404807     0.007504
PD1691   PD        0.034794    0.666481    0.337365     0.005394
PD1692   PD        0.107715    0.568696    0.369280     0.005394
AU1693   AU        0.105509    0.601191    0.403098     0.007504
AU1694   AU        0.138500    0.569567    0.404227     0.007504
AU1695   AU        0.138961    0.603484    0.370601     0.007504
AU1696   AU        0.171542    0.567904    0.369052     0.007504
AU1697   AU        0.170892    0.605234    0.404863     0.007504
AU1698   AU        0.204748    0.569777    0.402366     0.007504
PD1699   PD        0.202750    0.601766    0.368680     0.005394
AU1700   AU        0.236810    0.570601    0.368497     0.007504
AU1701   AU        0.237284    0.605377    0.402202     0.007504
AU1702   AU        0.269804    0.569494    0.402908     0.007504
AU1703   AU        0.271208    0.602144    0.368879     0.007504
AU1704   AU        0.304416    0.572406    0.369065     0.007504
PD1705   PD        0.306260    0.604191    0.401719     0.005394
AU1706   AU        0.337469    0.572057    0.403373     0.007504
AU1707   AU        0.337760    0.605871    0.368418     0.007504
AU1708   AU        0.369011    0.571901    0.368742     0.007504
AU1709   AU        0.370304    0.603767    0.401101     0.007504
PD1710   PD        0.402583    0.568819    0.402258     0.005394
PD1711   PD        0.406252    0.602758    0.367675     0.005394
AU1712   AU        0.438526    0.570257    0.367932     0.007504
AU1713   AU        0.437711    0.604507    0.402886     0.007504
AU1714   AU        0.470729    0.571045    0.402839     0.007504
AU1715   AU        0.470899    0.603282    0.370827     0.007504
PD1716   PD        0.501656    0.570152    0.367794     0.005394
PD1717   PD        0.504445    0.601364    0.402510     0.005394
AU1718   AU        0.537550    0.568424    0.402181     0.007504
PD1719   PD        0.536859    0.601990    0.368792     0.005394
AU1720   AU        0.569514    0.567879    0.366826     0.007504
PD1721   PD        0.569357    0.603675    0.401991     0.005394
AU1722   AU        0.602242    0.568575    0.401835     0.007504
PD1723   PD        0.601793    0.604799    0.365052     0.005394
AU1724   AU        0.634732    0.569873    0.367357     0.007504
AU1725   AU        0.633673    0.602580    0.400235     0.007504
PD1726   PD        0.669870    0.571639    0.400729     0.005394
PD1727   PD        0.667779    0.601995    0.367783     0.005394
AU1728   AU        0.703001    0.570394    0.368224     0.007504
AU1729   AU        0.703364    0.603689    0.401753     0.007504
AU1730   AU        0.734748    0.570395    0.402482     0.007504
PD1731   PD        0.737424    0.602775    0.367660     0.005394
PD1732   PD        0.768819    0.568504    0.367389     0.005394
AU1733   AU        0.766642    0.602758    0.401840     0.007504
PD1734   PD        0.804024    0.570629    0.401312     0.005394
PD1735   PD        0.799396    0.602576    0.367917     0.005394
AU1736   AU        0.104648    0.637854    0.372874     0.007504
PD1737   PD        0.075333    0.636315    0.399558     0.005394
AU1738   AU        0.139533    0.637222    0.404395     0.007504
PD1739   PD        0.136610    0.670686    0.370460     0.005394
AU1740   AU        0.171027    0.635287    0.369313     0.007504
AU1741   AU        0.171690    0.668525    0.403271     0.007504
PD1742   PD        0.203311    0.635992    0.403226     0.005394
AU1743   AU        0.203538    0.669980    0.372977     0.007504
PD1744   PD        0.238505    0.636916    0.370520     0.005394
PD1745   PD        0.237244    0.671892    0.403772     0.005394
AU1746   AU        0.271876    0.636414    0.401567     0.007504
PD1747   PD        0.271042    0.669315    0.370343     0.005394
AU1748   AU        0.303712    0.636660    0.368751     0.007504
PD1749   PD        0.302645    0.668277    0.401990     0.005394
AU1750   AU        0.336948    0.637649    0.401399     0.007504
AU1751   AU        0.338947    0.669734    0.367740     0.007504
AU1752   AU        0.372903    0.637055    0.367199     0.007504
AU1753   AU        0.371695    0.670338    0.402883     0.007504
AU1754   AU        0.403450    0.635791    0.400951     0.007504
PD1755   PD        0.403281    0.671754    0.368879     0.005394
AU1756   AU        0.438306    0.637543    0.368175     0.007504
AU1757   AU        0.435995    0.668088    0.402398     0.007504
AU1758   AU        0.471274    0.636229    0.402309     0.007504
AU1759   AU        0.470226    0.669058    0.368819     0.007504
PD1760   PD        0.503480    0.637386    0.368596     0.005394
AU1761   AU        0.502411    0.669755    0.402883     0.007504
AU1762   AU        0.537498    0.637160    0.402354     0.007504
AU1763   AU        0.532497    0.669099    0.367922     0.007504
PD1764   PD        0.568187    0.638115    0.367407     0.005394
PD1765   PD        0.570277    0.669580    0.401104     0.005394
PD1766   PD        0.600769    0.633559    0.400710     0.005394
AU1767   AU        0.602428    0.668525    0.368348     0.007504
AU1768   AU        0.634699    0.636999    0.369196     0.007504
AU1769   AU        0.635167    0.669662    0.401882     0.007504
PD1770   PD        0.667119    0.638584    0.401735     0.005394
PD1771   PD        0.668358    0.671518    0.368161     0.005394
PD1772   PD        0.700250    0.634832    0.368217     0.005394
AU1773   AU        0.701126    0.669417    0.399560     0.007504
PD1774   PD        0.737874    0.636267    0.399757     0.005394
PD1775   PD        0.735077    0.671866    0.369125     0.005394
AU1776   AU        0.766797    0.637936    0.370900     0.007504
PD1777   PD        0.768730    0.671445    0.401726     0.005394
PD1778   PD        0.139857    0.700129    0.407298     0.005394
AU1779   AU        0.170638    0.704694    0.369502     0.007504
PD1780   PD        0.173160    0.741217    0.406029     0.005394
PD1781   PD        0.203129    0.704400    0.402774     0.005394
PD1782   PD        0.206004    0.735068    0.368249     0.005394
PD1783   PD        0.235976    0.704102    0.369449     0.005394
AU1784   AU        0.236928    0.736983    0.403763     0.007504
AU1785   AU        0.270154    0.702969    0.402056     0.007504
PD1786   PD        0.267660    0.736286    0.370804     0.005394
AU1787   AU        0.304520    0.701011    0.370334     0.007504
PD1788   PD        0.304495    0.736495    0.402360     0.005394
AU1789   AU        0.337669    0.702582    0.401119     0.007504
AU1790   AU        0.336712    0.736558    0.368741     0.007504
AU1791   AU        0.371284    0.703415    0.368935     0.007504
AU1792   AU        0.370854    0.736281    0.400985     0.007504
AU1793   AU        0.404307    0.702590    0.401995     0.007504
AU1794   AU        0.404992    0.735012    0.368938     0.007504
AU1795   AU        0.437386    0.701859    0.368990     0.007504
AU1796   AU        0.434016    0.735305    0.402880     0.007504
AU1797   AU        0.467958    0.702678    0.401919     0.007504
AU1798   AU        0.469761    0.735689    0.367658     0.007504
AU1799   AU        0.504045    0.704158    0.368674     0.007504
PD1800   PD        0.502993    0.736281    0.401704     0.005394
AU1801   AU        0.535859    0.703384    0.403725     0.007504
AU1802   AU        0.537063    0.736699    0.369465     0.007504
PD1803   PD        0.568663    0.701655    0.368253     0.005394
PD1804   PD        0.566943    0.737406    0.401307     0.005394
PD1805   PD        0.600042    0.703633    0.401026     0.005394
AU1806   AU        0.602500    0.734335    0.368278     0.007504
PD1807   PD        0.634409    0.702530    0.368215     0.005394
AU1808   AU        0.635274    0.735909    0.401785     0.007504
AU1809   AU        0.668838    0.702782    0.401505     0.007504
AU1810   AU        0.667803    0.735187    0.368125     0.007504
AU1811   AU        0.700639    0.704641    0.368136     0.007504
AU1812   AU        0.700194    0.737483    0.401899     0.007504
AU1813   AU        0.734345    0.703600    0.401505     0.007504
PD1814   PD        0.173422    0.767148    0.367735     0.005394
PD1815   PD        0.233651    0.772628    0.369615     0.005394
PD1816   PD        0.271621    0.765822    0.400175     0.005394
AU1817   AU        0.270447    0.800146    0.371254     0.007504
PD1818   PD        0.303831    0.768261    0.369211     0.005394
PD1819   PD        0.304630    0.801939    0.401448     0.005394
AU1820   AU        0.337799    0.771473    0.400172     0.007504
PD1821   PD        0.338362    0.802280    0.370298     0.005394
AU1822   AU        0.371859    0.768785    0.368498     0.007504
PD1823   PD        0.371691    0.801268    0.403099     0.005394
PD1824   PD        0.404591    0.769133    0.400715     0.005394
PD1825   PD        0.403779    0.801412    0.368117     0.005394
PD1826   PD        0.439398    0.767052    0.369434     0.005394
PD1827   PD        0.435515    0.801082    0.401845     0.005394
PD1828   PD        0.471036    0.768694    0.402714     0.005394
PD1829   PD        0.469944    0.799715    0.367273     0.005394
AU1830   AU        0.503140    0.769026    0.367595     0.007504
AU1831   AU        0.503283    0.800503    0.403036     0.007504
AU1832   AU        0.534222    0.769611    0.399831     0.007504
PD1833   PD        0.535929    0.804689    0.367954     0.005394
AU1834   AU        0.570459    0.768925    0.367785     0.007504
PD1835   PD        0.570556    0.802194    0.403591     0.005394
PD1836   PD        0.602410    0.770384    0.401426     0.005394
AU1837   AU        0.599232    0.802664    0.366669     0.007504
AU1838   AU        0.634928    0.770099    0.369875     0.007504
AU1839   AU        0.665638    0.768822    0.403724     0.007504
PD1840   PD        0.405145    0.835891    0.398522     0.005394
AU1841   AU        0.437702    0.833546    0.366916     0.007504
AU1842   AU        0.469410    0.831251    0.400607     0.007504
PD1843   PD        0.304519    0.000667    0.468217     0.005394
AU1844   AU        0.303789    0.070207    0.467647     0.007504
AU1845   AU        0.334962    0.072212    0.436193     0.007504
PD1846   PD        0.368690    0.040163    0.434845     0.005394
PD1847   PD        0.370446    0.072413    0.472253     0.005394
AU1848   AU        0.400806    0.038880    0.469044     0.007504
PD1849   PD        0.403247    0.071512    0.437038     0.005394
PD1850   PD        0.434906    0.040709    0.436582     0.005394
AU1851   AU        0.433331    0.073001    0.470472     0.007504
PD1852   PD        0.465443    0.040312    0.470558     0.005394
AU1853   AU        0.469919    0.071211    0.436287     0.007504
AU1854   AU        0.500942    0.036340    0.434576     0.007504
PD1855   PD        0.503845    0.071121    0.468400     0.005394
AU1856   AU        0.534890    0.071254    0.434618     0.007504
PD1857   PD        0.566407    0.037949    0.503339     0.005394
PD1858   PD        0.596865    0.038656    0.395984     0.005394
PD1859   PD        0.171145    0.137166    0.470553     0.005394
PD1860   PD        0.206166    0.102350    0.469707     0.005394
AU1861   AU        0.204332    0.138191    0.436755     0.007504
PD1862   PD        0.236821    0.109103    0.437103     0.005394
AU1863   AU        0.235830    0.138594    0.471790     0.007504
PD1864   PD        0.269011    0.105602    0.470905     0.005394
AU1865   AU        0.269866    0.140103    0.435649     0.007504
AU1866   AU        0.302312    0.105954    0.435352     0.007504
AU1867   AU        0.301651    0.137504    0.468454     0.007504
PD1868   PD        0.333398    0.104902    0.470937     0.005394
PD1869   PD        0.335237    0.140030    0.435588     0.005394
PD1870   PD        0.368125    0.105519    0.434012     0.005394
PD1871   PD        0.366242    0.137267    0.468759     0.005394
PD1872   PD        0.400130    0.106015    0.469466     0.005394
AU1873   AU        0.400985    0.136835    0.434172     0.007504
PD1874   PD        0.434437    0.104981    0.435085     0.005394
AU1875   AU        0.433587    0.137399    0.468015     0.007504
PD1876   PD        0.466804    0.107660    0.468821     0.005394
PD1877   PD        0.466473    0.136811    0.433790     0.005394
AU1878   AU        0.501509    0.105526    0.435171     0.007504
PD1879   PD        0.504754    0.136891    0.468976     0.005394
PD1880   PD        0.534590    0.106663    0.468960     0.005394
PD1881   PD        0.534840    0.137987    0.435824     0.005394
AU1882   AU        0.567385    0.104915    0.433212     0.007504
PD1883   PD        0.568339    0.139172    0.470482     0.005394
PD1884   PD        0.597855    0.106263    0.468846     0.005394
AU1885   AU        0.599116    0.139859    0.435229     0.007504
PD1886   PD        0.639832    0.103186    0.434992     0.005394
PD1887   PD        0.632174    0.138694    0.467699     0.005394
PD1888   PD        0.702286    0.067769    0.464029     0.005394
PD1889   PD        0.665816    0.142075    0.432382     0.005394
PD1890   PD        0.715887    0.143976    0.477768     0.005394
PD1891   PD        0.104062    0.201106    0.470676     0.005394
AU1892   AU        0.139736    0.170359    0.467503     0.007504
AU1893   AU        0.137795    0.203677    0.435474     0.007504
AU1894   AU        0.170679    0.171041    0.435723     0.007504
AU1895   AU        0.171486    0.204192    0.467030     0.007504
AU1896   AU        0.203546    0.170597    0.469618     0.007504
PD1897   PD        0.204959    0.205455    0.436523     0.005394
AU1898   AU        0.236475    0.171982    0.436739     0.007504
AU1899   AU        0.233689    0.206903    0.470022     0.007504
AU1900   AU        0.268688    0.171323    0.468231     0.007504
AU1901   AU        0.271433    0.204698    0.436793     0.007504
AU1902   AU        0.302158    0.171698    0.434455     0.007504
PD1903   PD        0.304509    0.201304    0.469464     0.005394
AU1904   AU        0.336428    0.169273    0.468949     0.007504
PD1905   PD        0.335079    0.202694    0.435419     0.005394
AU1906   AU        0.370161    0.171406    0.435656     0.007504
PD1907   PD        0.368829    0.205242    0.467520     0.005394
AU1908   AU        0.401053    0.168198    0.468886     0.007504
PD1909   PD        0.402817    0.204615    0.434391     0.005394
AU1910   AU        0.433000    0.170373    0.436853     0.007504
AU1911   AU        0.435439    0.205898    0.469121     0.007504
PD1912   PD        0.469165    0.169124    0.467331     0.005394
AU1913   AU        0.467749    0.203836    0.437524     0.007504
PD1914   PD        0.500408    0.173243    0.435313     0.005394
PD1915   PD        0.502097    0.206572    0.468113     0.005394
AU1916   AU        0.533872    0.171408    0.470822     0.007504
PD1917   PD        0.535708    0.205247    0.434505     0.005394
PD1918   PD        0.567044    0.172007    0.435252     0.005394
PD1919   PD        0.567385    0.205918    0.468404     0.005394
PD1920   PD        0.600431    0.171356    0.469920     0.005394
AU1921   AU        0.601572    0.204592    0.436826     0.007504
PD1922   PD        0.633156    0.171975    0.433542     0.005394
AU1923   AU        0.632802    0.204724    0.470052     0.007504
PD1924   PD        0.666324    0.172556    0.471199     0.005394
PD1925   PD        0.667589    0.203002    0.437535     0.005394
PD1926   PD        0.701215    0.168852    0.436422     0.005394
PD1927   PD        0.699465    0.201562    0.465335     0.005394
PD1928   PD        0.746699    0.160506    0.448969     0.005394
PD1929   PD        0.734366    0.205757    0.432475     0.005394
PD1930   PD        0.767285    0.199669    0.467424     0.005394
PD1931   PD        0.069315    0.270651    0.438226     0.005394
PD1932   PD        0.103724    0.237600    0.438937     0.005394
AU1933   AU        0.104558    0.270407    0.470837     0.007504
PD1934   PD        0.136123    0.236216    0.469856     0.005394
PD1935   PD        0.133523    0.271811    0.434706     0.005394
AU1936   AU        0.169365    0.239212    0.438162     0.007504
AU1937   AU        0.168745    0.270360    0.470198     0.007504
AU1938   AU        0.202092    0.236639    0.469837     0.007504
AU1939   AU        0.203549    0.268694    0.437519     0.007504
AU1940   AU        0.237263    0.237137    0.434042     0.007504
AU1941   AU        0.237377    0.269253    0.468005     0.007504
AU1942   AU        0.270536    0.235881    0.469555     0.007504
AU1943   AU        0.269372    0.268672    0.437357     0.007504
AU1944   AU        0.302667    0.237651    0.437611     0.007504
AU1945   AU        0.300661    0.271420    0.470625     0.007504
AU1946   AU        0.335772    0.238266    0.467281     0.007504
AU1947   AU        0.337193    0.271777    0.436195     0.007504
AU1948   AU        0.369640    0.238105    0.435413     0.007504
AU1949   AU        0.371089    0.270573    0.470736     0.007504
AU1950   AU        0.400871    0.237848    0.469700     0.007504
AU1951   AU        0.402315    0.270528    0.435250     0.007504
AU1952   AU        0.434178    0.238534    0.437300     0.007504
AU1953   AU        0.436680    0.270751    0.469328     0.007504
AU1954   AU        0.469617    0.238368    0.468921     0.007504
PD1955   PD        0.466544    0.271128    0.436504     0.005394
PD1956   PD        0.499944    0.237984    0.435451     0.005394
AU1957   AU        0.501949    0.271088    0.468503     0.007504
AU1958   AU        0.536757    0.238094    0.471519     0.007504
PD1959   PD        0.537842    0.270873    0.437764     0.005394
PD1960   PD        0.569347    0.239857    0.436151     0.005394
PD1961   PD        0.568441    0.272019    0.470384     0.005394
AU1962   AU        0.600741    0.238551    0.469939     0.007504
PD1963   PD        0.601832    0.270522    0.433667     0.005394
PD1964   PD        0.633686    0.237226    0.435397     0.005394
PD1965   PD        0.636244    0.273498    0.470087     0.005394
PD1966   PD        0.668017    0.237648    0.471716     0.005394
PD1967   PD        0.668081    0.273475    0.436075     0.005394
AU1968   AU        0.700891    0.238620    0.435398     0.007504
PD1969   PD        0.702538    0.268560    0.468796     0.005394
PD1970   PD        0.734149    0.239914    0.469251     0.005394
PD1971   PD        0.735628    0.270754    0.433000     0.005394
AU1972   AU        0.767420    0.234916    0.433926     0.007504
PD1973   PD        0.769226    0.274073    0.465341     0.005394
PD1974   PD        0.801837    0.273677    0.433881     0.005394
PD1975   PD        0.069665    0.301958    0.470690     0.005394
PD1976   PD        0.073040    0.338029    0.438228     0.005394
AU1977   AU        0.103859    0.303593    0.438519     0.007504
PD1978   PD        0.104002    0.338203    0.468833     0.005394
PD1979   PD        0.137068    0.303595    0.469648     0.005394
AU1980   AU        0.137854    0.335724    0.435102     0.007504
PD1981   PD        0.170261    0.303857    0.435901     0.005394
AU1982   AU        0.170469    0.337600    0.469839     0.007504
PD1983   PD        0.200539    0.305449    0.469753     0.005394
PD1984   PD        0.204411    0.338626    0.435871     0.005394
PD1985   PD        0.237124    0.303342    0.437111     0.005394
PD1986   PD        0.234130    0.336735    0.469631     0.005394
AU1987   AU        0.269210    0.303349    0.468759     0.007504
AU1988   AU        0.270245    0.338104    0.438404     0.007504
PD1989   PD        0.303254    0.302221    0.437418     0.005394
AU1990   AU        0.305033    0.335844    0.467902     0.007504
AU1991   AU        0.337348    0.303261    0.468781     0.007504
AU1992   AU        0.335873    0.336862    0.436215     0.007504
AU1993   AU        0.368880    0.304834    0.437029     0.007504
PD1994   PD        0.368597    0.339369    0.472803     0.005394
AU1995   AU        0.401737    0.304671    0.467656     0.007504
AU1996   AU        0.401470    0.337434    0.435335     0.007504
AU1997   AU        0.436372    0.304826    0.436137     0.007504
AU1998   AU        0.435058    0.337093    0.468709     0.007504
AU1999   AU        0.467990    0.302803    0.470457     0.007504
AU2000   AU        0.468907    0.339691    0.435627     0.007504
PD2001   PD        0.499632    0.304761    0.437124     0.005394
PD2002   PD        0.500858    0.338604    0.469372     0.005394
PD2003   PD        0.535051    0.302859    0.470898     0.005394
AU2004   AU        0.535217    0.338191    0.435258     0.007504
PD2005   PD        0.569701    0.307480    0.434607     0.005394
AU2006   AU        0.568659    0.338179    0.468524     0.007504
AU2007   AU        0.600697    0.304518    0.467357     0.007504
AU2008   AU        0.600816    0.340476    0.435427     0.007504
AU2009   AU        0.634766    0.306303    0.435875     0.007504
PD2010   PD        0.635191    0.337429    0.468269     0.005394
PD2011   PD        0.670804    0.304584    0.470508     0.005394
AU2012   AU        0.668340    0.338070    0.436202     0.007504
AU2013   AU        0.701064    0.305079    0.435265     0.007504
AU2014   AU        0.701595    0.336951    0.469005     0.007504
AU2015   AU        0.732839    0.303407    0.465939     0.007504
AU2016   AU        0.732731    0.339849    0.435535     0.007504
AU2017   AU        0.768511    0.306735    0.435450     0.007504
AU2018   AU        0.767819    0.336516    0.469208     0.007504
PD2019   PD        0.799301    0.308498    0.469875     0.005394
PD2020   PD        0.802220    0.340411    0.435156     0.005394
AU2021   AU        0.041222    0.371161    0.434124     0.007504
PD2022   PD        0.040756    0.404258    0.468084     0.005394
AU2023   AU        0.072212    0.370550    0.469151     0.007504
AU2024   AU        0.072820    0.402868    0.435412     0.007504
AU2025   AU        0.103614    0.370891    0.435579     0.007504
AU2026   AU        0.103443    0.403718    0.468590     0.007504
PD2027   PD        0.136985    0.368539    0.470782     0.005394
PD2028   PD        0.138386    0.404052    0.435390     0.005394
PD2029   PD        0.169702    0.371105    0.435875     0.005394
AU2030   AU        0.169602    0.404283    0.469493     0.007504
PD2031   PD        0.203527    0.371576    0.467010     0.005394
AU2032   AU        0.205150    0.402684    0.436067     0.007504
PD2033   PD        0.238214    0.368921    0.436278     0.005394
AU2034   AU        0.238208    0.403561    0.469267     0.007504
PD2035   PD        0.269987    0.369485    0.471215     0.005394
PD2036   PD        0.269808    0.403412    0.436785     0.005394
AU2037   AU        0.303029    0.372170    0.436841     0.007504
AU2038   AU        0.303967    0.403280    0.468498     0.007504
AU2039   AU        0.336235    0.370028    0.467688     0.007504
AU2040   AU        0.336382    0.404729    0.435346     0.007504
PD2041   PD        0.369193    0.370489    0.436593     0.005394
AU2042   AU        0.368107    0.401723    0.469035     0.007504
PD2043   PD        0.404866    0.371687    0.470002     0.005394
PD2044   PD        0.403964    0.404453    0.435612     0.005394
PD2045   PD        0.435483    0.370532    0.437737     0.005394
PD2046   PD        0.436675    0.403222    0.468647     0.005394
PD2047   PD        0.467626    0.369404    0.468755     0.005394
PD2048   PD        0.469632    0.404499    0.435883     0.005394
PD2049   PD        0.503087    0.371561    0.432738     0.005394
AU2050   AU        0.503351    0.403791    0.467165     0.007504
AU2051   AU        0.535668    0.371996    0.468705     0.007504
AU2052   AU        0.536091    0.405019    0.435667     0.007504
PD2053   PD        0.568266    0.372368    0.436238     0.005394
AU2054   AU        0.570122    0.404314    0.468915     0.007504
AU2055   AU        0.603459    0.369302    0.470466     0.007504
AU2056   AU        0.602410    0.405134    0.435473     0.007504
PD2057   PD        0.632936    0.372790    0.435484     0.005394
AU2058   AU        0.635479    0.404059    0.470522     0.007504
PD2059   PD        0.668022    0.371400    0.467399     0.005394
PD2060   PD        0.666968    0.404540    0.436907     0.005394
PD2061   PD        0.700612    0.372841    0.433436     0.005394
AU2062   AU        0.701262    0.404162    0.469257     0.007504
AU2063   AU        0.733707    0.370885    0.467836     0.007504
AU2064   AU        0.734615    0.404751    0.435075     0.007504
PD2065   PD        0.765689    0.369304    0.436163     0.005394
AU2066   AU        0.764332    0.402746    0.469588     0.007504
AU2067   AU        0.800799    0.371297    0.470535     0.007504
PD2068   PD        0.799038    0.403589    0.439717     0.005394
AU2069   AU        0.832943    0.373032    0.438939     0.007504
AU2070   AU        0.832781    0.404430    0.471671     0.007504
PD2071   PD        0.038015    0.434346    0.434371     0.005394
AU2072   AU        0.040416    0.470362    0.470830     0.007504
PD2073   PD        0.071151    0.435961    0.470594     0.005394
AU2074   AU        0.071397    0.467437    0.435441     0.007504
PD2075   PD        0.105881    0.436708    0.435337     0.005394
PD2076   PD        0.105599    0.472250    0.467520     0.005394
AU2077   AU        0.138221    0.436361    0.469507     0.007504
AU2078   AU        0.135979    0.471245    0.435449     0.007504
PD2079   PD        0.170964    0.436702    0.436752     0.005394
PD2080   PD        0.169979    0.471146    0.469421     0.005394
PD2081   PD        0.205088    0.437775    0.465878     0.005394
PD2082   PD        0.202813    0.469249    0.434581     0.005394
AU2083   AU        0.237203    0.436773    0.434146     0.007504
AU2084   AU        0.237062    0.468821    0.469779     0.007504
PD2085   PD        0.270342    0.437020    0.470006     0.005394
PD2086   PD        0.271073    0.470538    0.433370     0.005394
AU2087   AU        0.302857    0.438202    0.435813     0.007504
AU2088   AU        0.304071    0.470105    0.470691     0.007504
AU2089   AU        0.336657    0.437140    0.469448     0.007504
AU2090   AU        0.335170    0.469263    0.435700     0.007504
PD2091   PD        0.368936    0.437883    0.437854     0.005394
AU2092   AU        0.372393    0.470728    0.468975     0.007504
PD2093   PD        0.403055    0.437728    0.469992     0.005394
AU2094   AU        0.403338    0.470901    0.435538     0.007504
AU2095   AU        0.438024    0.439459    0.436042     0.007504
AU2096   AU        0.435124    0.471181    0.470080     0.007504
AU2097   AU        0.471242    0.438792    0.468798     0.007504
AU2098   AU        0.471532    0.470382    0.437466     0.007504
AU2099   AU        0.503398    0.438997    0.435503     0.007504
AU2100   AU        0.504485    0.470516    0.471043     0.007504
PD2101   PD        0.534815    0.437061    0.470878     0.005394
AU2102   AU        0.536439    0.469517    0.436291     0.007504
AU2103   AU        0.568731    0.439463    0.437343     0.007504
AU2104   AU        0.569044    0.471407    0.469814     0.007504
AU2105   AU        0.603098    0.437369    0.469711     0.007504
PD2106   PD        0.601376    0.472508    0.433678     0.005394
PD2107   PD        0.635249    0.436535    0.436277     0.005394
PD2108   PD        0.638520    0.470575    0.468174     0.005394
PD2109   PD        0.667557    0.436891    0.470854     0.005394
AU2110   AU        0.668608    0.471935    0.435357     0.007504
AU2111   AU        0.701356    0.437256    0.435236     0.007504
PD2112   PD        0.700038    0.467958    0.469188     0.005394
AU2113   AU        0.735080    0.436206    0.468815     0.007504
PD2114   PD        0.733907    0.468706    0.434963     0.005394
AU2115   AU        0.769907    0.437579    0.436271     0.007504
PD2116   PD        0.766136    0.469886    0.468365     0.005394
PD2117   PD        0.800306    0.438645    0.469486     0.005394
PD2118   PD        0.800580    0.470389    0.436649     0.005394
PD2119   PD        0.834496    0.435730    0.437157     0.005394
PD2120   PD        0.834330    0.475084    0.472567     0.005394
PD2121   PD        0.040963    0.502985    0.435168     0.005394
PD2122   PD        0.071805    0.503691    0.469157     0.005394
AU2123   AU        0.073415    0.534705    0.434305     0.007504
PD2124   PD        0.105199    0.503784    0.432730     0.005394
PD2125   PD        0.104954    0.538494    0.467954     0.005394
AU2126   AU        0.136752    0.504681    0.467639     0.007504
AU2127   AU        0.138081    0.537932    0.436864     0.007504
PD2128   PD        0.171967    0.505249    0.435902     0.005394
AU2129   AU        0.172093    0.538975    0.466795     0.007504
AU2130   AU        0.203788    0.505234    0.468000     0.007504
PD2131   PD        0.203079    0.540169    0.434904     0.005394
PD2132   PD        0.236634    0.501421    0.437013     0.005394
AU2133   AU        0.235963    0.539117    0.469240     0.007504
AU2134   AU        0.271231    0.502212    0.469402     0.007504
PD2135   PD        0.268409    0.534868    0.437948     0.005394
AU2136   AU        0.301753    0.503106    0.436551     0.007504
PD2137   PD        0.301454    0.539171    0.466969     0.005394
AU2138   AU        0.337457    0.503435    0.468399     0.007504
PD2139   PD        0.335064    0.536879    0.434127     0.005394
PD2140   PD        0.369484    0.503178    0.434667     0.005394
PD2141   PD        0.368664    0.540719    0.466629     0.005394
AU2142   AU        0.404739    0.503402    0.467489     0.007504
AU2143   AU        0.403425    0.535854    0.435901     0.007504
PD2144   PD        0.436863    0.503658    0.435196     0.005394
AU2145   AU        0.437069    0.537669    0.467218     0.007504
AU2146   AU        0.468493    0.501920    0.469596     0.007504
PD2147   PD        0.469250    0.536126    0.435024     0.005394
PD2148   PD        0.500338    0.502608    0.435492     0.005394
AU2149   AU        0.503585    0.537102    0.465971     0.007504
PD2150   PD        0.535094    0.504230    0.469938     0.005394
PD2151   PD        0.534228    0.537339    0.435491     0.005394
AU2152   AU        0.568592    0.504230    0.436987     0.007504
PD2153   PD        0.569676    0.536340    0.467488     0.005394
PD2154   PD        0.603405    0.503947    0.467103     0.005394
AU2155   AU        0.603031    0.538142    0.435117     0.007504
AU2156   AU        0.635625    0.503949    0.433817     0.007504
AU2157   AU        0.635517    0.538532    0.467902     0.007504
AU2158   AU        0.667364    0.507073    0.468666     0.007504
AU2159   AU        0.668584    0.540054    0.434277     0.007504
AU2160   AU        0.700874    0.503044    0.433521     0.007504
PD2161   PD        0.701797    0.539014    0.467252     0.005394
PD2162   PD        0.734948    0.504045    0.467729     0.005394
AU2163   AU        0.734125    0.539456    0.435629     0.007504
PD2164   PD        0.766893    0.505777    0.434170     0.005394
PD2165   PD        0.769090    0.540061    0.469715     0.005394
PD2166   PD        0.801675    0.503724    0.467770     0.005394
PD2167   PD        0.800096    0.536920    0.437168     0.005394
PD2168   PD        0.834515    0.505147    0.438634     0.005394
PD2169   PD        0.072280    0.568619    0.469138     0.005394
PD2170   PD        0.069596    0.603015    0.434533     0.005394
AU2171   AU        0.103705    0.569410    0.436338     0.007504
AU2172   AU        0.104063    0.601104    0.467409     0.007504
AU2173   AU        0.137343    0.571603    0.471376     0.007504
AU2174   AU        0.138297    0.603086    0.435648     0.007504
PD2175   PD        0.169902    0.571566    0.435439     0.005394
AU2176   AU        0.170703    0.605302    0.469209     0.007504
PD2177   PD        0.205573    0.570016    0.468049     0.005394
AU2178   AU        0.202949    0.605837    0.436923     0.007504
PD2179   PD        0.238513    0.571653    0.434992     0.005394
AU2180   AU        0.239349    0.605812    0.467723     0.007504
AU2181   AU        0.270785    0.571885    0.467918     0.007504
PD2182   PD        0.272065    0.605329    0.435589     0.005394
PD2183   PD        0.301730    0.570433    0.433620     0.005394
AU2184   AU        0.303554    0.604793    0.467265     0.007504
PD2185   PD        0.334779    0.572827    0.468786     0.005394
PD2186   PD        0.336800    0.605298    0.435347     0.005394
AU2187   AU        0.368291    0.571176    0.436218     0.007504
PD2188   PD        0.370087    0.605094    0.467149     0.005394
PD2189   PD        0.403279    0.570516    0.467755     0.005394
PD2190   PD        0.401759    0.603302    0.433979     0.005394
AU2191   AU        0.437080    0.569453    0.435064     0.007504
PD2192   PD        0.437490    0.602487    0.469971     0.005394
AU2193   AU        0.470546    0.569309    0.469723     0.007504
AU2194   AU        0.470673    0.603218    0.435544     0.007504
AU2195   AU        0.503409    0.571444    0.435952     0.007504
AU2196   AU        0.502918    0.603464    0.467621     0.007504
PD2197   PD        0.536633    0.570117    0.469698     0.005394
PD2198   PD        0.534422    0.605260    0.434503     0.005394
PD2199   PD        0.567761    0.568222    0.435693     0.005394
PD2200   PD        0.569593    0.603249    0.470480     0.005394
PD2201   PD        0.601734    0.571765    0.471315     0.005394
PD2202   PD        0.600463    0.604275    0.433813     0.005394
PD2203   PD        0.635783    0.569356    0.432312     0.005394
PD2204   PD        0.633181    0.603922    0.465445     0.005394
AU2205   AU        0.668693    0.572489    0.469375     0.007504
PD2206   PD        0.667590    0.601329    0.433910     0.005394
AU2207   AU        0.700602    0.571429    0.434592     0.007504
AU2208   AU        0.702776    0.603304    0.466790     0.007504
PD2209   PD        0.733775    0.571652    0.467434     0.005394
AU2210   AU        0.733936    0.605923    0.434087     0.007504
AU2211   AU        0.767392    0.572895    0.434647     0.007504
AU2212   AU        0.769350    0.605224    0.468932     0.007504
PD2213   PD        0.798895    0.570465    0.469567     0.005394
AU2214   AU        0.802446    0.601575    0.437189     0.007504
PD2215   PD        0.105622    0.633386    0.434693     0.005394
PD2216   PD        0.097958    0.665516    0.467513     0.005394
PD2217   PD        0.137310    0.636699    0.469355     0.005394
PD2218   PD        0.138440    0.669038    0.437939     0.005394
PD2219   PD        0.171518    0.639540    0.436213     0.005394
AU2220   AU        0.173257    0.669378    0.469919     0.007504
AU2221   AU        0.206064    0.639213    0.467298     0.007504
AU2222   AU        0.204458    0.670938    0.434075     0.007504
PD2223   PD        0.239274    0.637122    0.435179     0.005394
AU2224   AU        0.238599    0.671653    0.467042     0.007504
PD2225   PD        0.271041    0.639630    0.467936     0.005394
PD2226   PD        0.270306    0.669755    0.434745     0.005394
AU2227   AU        0.304655    0.636733    0.435155     0.007504
AU2228   AU        0.303013    0.669037    0.467440     0.007504
AU2229   AU        0.336035    0.636731    0.468726     0.007504
AU2230   AU        0.337565    0.670264    0.434835     0.007504
AU2231   AU        0.369670    0.637585    0.433991     0.007504
PD2232   PD        0.371228    0.672727    0.466481     0.005394
PD2233   PD        0.402747    0.637250    0.470098     0.005394
AU2234   AU        0.404807    0.669719    0.436378     0.007504
AU2235   AU        0.434696    0.636800    0.437560     0.007504
AU2236   AU        0.437002    0.667998    0.470647     0.007504
AU2237   AU        0.468675    0.635411    0.468736     0.007504
AU2238   AU        0.467435    0.670183    0.436878     0.007504
AU2239   AU        0.501765    0.637449    0.436796     0.007504
PD2240   PD        0.501444    0.672181    0.467604     0.005394
PD2241   PD        0.536512    0.635449    0.470061     0.005394
AU2242   AU        0.535453    0.667917    0.435047     0.007504
PD2243   PD        0.568971    0.637007    0.436916     0.005394
PD2244   PD        0.568094    0.672820    0.468931     0.005394
AU2245   AU        0.602401    0.635461    0.467824     0.007504
AU2246   AU        0.601084    0.669579    0.434372     0.007504
PD2247   PD        0.635839    0.633501    0.434537     0.005394
PD2248   PD        0.634791    0.669368    0.466874     0.005394
AU2249   AU        0.669661    0.635511    0.466273     0.007504
AU2250   AU        0.670200    0.671009    0.433278     0.007504
AU2251   AU        0.701280    0.637609    0.434322     0.007504
AU2252   AU        0.702472    0.671337    0.467254     0.007504
AU2253   AU        0.734170    0.635987    0.467819     0.007504
AU2254   AU        0.734667    0.668407    0.434849     0.007504
AU2255   AU        0.769996    0.636184    0.434753     0.007504
AU2256   AU        0.769830    0.667496    0.467772     0.007504
PD2257   PD        0.081124    0.795229    0.399159     0.005394
AU2258   AU        0.171089    0.703802    0.437772     0.007504
PD2259   PD        0.170032    0.733622    0.471824     0.005394
AU2260   AU        0.204196    0.704930    0.469873     0.007504
AU2261   AU        0.206262    0.735706    0.436658     0.007504
AU2262   AU        0.239249    0.703807    0.435547     0.007504
AU2263   AU        0.242666    0.737312    0.467339     0.007504
PD2264   PD        0.272612    0.704129    0.471880     0.005394
AU2265   AU        0.271628    0.734775    0.434013     0.007504
AU2266   AU        0.304800    0.702411    0.434122     0.007504
PD2267   PD        0.304710    0.735280    0.468155     0.005394
PD2268   PD        0.336103    0.702196    0.467235     0.005394
AU2269   AU        0.336714    0.735919    0.434436     0.007504
AU2270   AU        0.372062    0.702292    0.433716     0.007504
PD2271   PD        0.370508    0.736451    0.467824     0.005394
AU2272   AU        0.404833    0.702302    0.468106     0.007504
PD2273   PD        0.402889    0.738394    0.435090     0.005394
AU2274   AU        0.435626    0.702944    0.435205     0.007504
AU2275   AU        0.435959    0.735770    0.468958     0.007504
AU2276   AU        0.469029    0.704236    0.468851     0.007504
PD2277   PD        0.469594    0.733711    0.432830     0.005394
AU2278   AU        0.502083    0.703260    0.435636     0.007504
PD2279   PD        0.501840    0.736359    0.465768     0.005394
PD2280   PD        0.534899    0.702724    0.467764     0.005394
AU2281   AU        0.536365    0.737181    0.436636     0.007504
PD2282   PD        0.570099    0.702845    0.435762     0.005394
PD2283   PD        0.568000    0.736398    0.465239     0.005394
AU2284   AU        0.600553    0.703358    0.470073     0.007504
AU2285   AU        0.600240    0.735220    0.434902     0.007504
PD2286   PD        0.635021    0.704264    0.433853     0.005394
AU2287   AU        0.633709    0.735327    0.466888     0.007504
AU2288   AU        0.667973    0.703394    0.468167     0.007504
PD2289   PD        0.667898    0.735254    0.433610     0.005394
PD2290   PD        0.703131    0.704825    0.434524     0.005394
PD2291   PD        0.720492    0.743366    0.487988     0.005394
AU2292   AU        0.735479    0.703243    0.467554     0.007504
PD2293   PD        0.206562    0.766574    0.468062     0.005394
PD2294   PD        0.237773    0.772261    0.435825     0.005394
PD2295   PD        0.270275    0.772196    0.467390     0.005394
PD2296   PD        0.271418    0.871302    0.433177     0.005394
PD2297   PD        0.304350    0.767681    0.435076     0.005394
PD2298   PD        0.304062    0.800278    0.465118     0.005394
AU2299   AU        0.337030    0.770049    0.466653     0.007504
PD2300   PD        0.339244    0.802690    0.430916     0.005394
PD2301   PD        0.374310    0.768668    0.435162     0.005394
PD2302   PD        0.374022    0.803324    0.466496     0.005394
AU2303   AU        0.404457    0.768833    0.469008     0.007504
AU2304   AU        0.405857    0.801996    0.434567     0.007504
PD2305   PD        0.436677    0.767042    0.435327     0.005394
AU2306   AU        0.436961    0.803015    0.469966     0.007504
AU2307   AU        0.471064    0.770772    0.469752     0.007504
AU2308   AU        0.468566    0.803688    0.435051     0.007504
AU2309   AU        0.502529    0.768922    0.434453     0.007504
AU2310   AU        0.503455    0.803457    0.469390     0.007504
PD2311   PD        0.533715    0.768972    0.467421     0.005394
PD2312   PD        0.535145    0.801902    0.435955     0.005394
PD2313   PD        0.567381    0.770488    0.435369     0.005394
AU2314   AU        0.568243    0.800990    0.468919     0.007504
AU2315   AU        0.601688    0.768979    0.469991     0.007504
PD2316   PD        0.634505    0.804380    0.402896     0.005394
PD2317   PD        0.633810    0.769100    0.436356     0.005394
PD2318   PD        0.670373    0.766605    0.467337     0.005394
AU2319   AU        0.371518    0.835064    0.435762     0.007504
PD2320   PD        0.329372    0.847279    0.420669     0.005394
PD2321   PD        0.436403    0.834888    0.433533     0.005394
PD2322   PD        0.496886    0.882586    0.520097     0.005394
PD2323   PD        0.504345    0.836411    0.436424     0.005394
AU2324   AU        0.270435    0.069789    0.502394     0.007504
PD2325   PD        0.310284    0.036030    0.573690     0.005394
AU2326   AU        0.333735    0.072210    0.501778     0.007504
PD2327   PD        0.366968    0.074422    0.535883     0.005394
PD2328   PD        0.360968    0.013858    0.464073     0.005394
AU2329   AU        0.435504    0.039951    0.503237     0.007504
PD2330   PD        0.433040    0.071211    0.535810     0.005394
PD2331   PD        0.467732    0.076124    0.500293     0.005394
PD2332   PD        0.501894    0.071675    0.536016     0.005394
AU2333   AU        0.535040    0.073404    0.499469     0.007504
PD2334   PD        0.534385    0.002650    0.498802     0.005394
PD2335   PD        0.635835    0.072383    0.534390     0.005394
AU2336   AU        0.203410    0.137400    0.503001     0.007504
AU2337   AU        0.236836    0.104062    0.503241     0.007504
AU2338   AU        0.236365    0.139166    0.533333     0.007504
PD2339   PD        0.271243    0.105801    0.534506     0.005394
AU2340   AU        0.268613    0.139247    0.501951     0.007504
AU2341   AU        0.299940    0.106312    0.503023     0.007504
AU2342   AU        0.302806    0.138917    0.534470     0.007504
PD2343   PD        0.334987    0.105611    0.535930     0.005394
PD2344   PD        0.336282    0.139715    0.503994     0.005394
AU2345   AU        0.367639    0.104176    0.503435     0.007504
AU2346   AU        0.369007    0.138665    0.537354     0.007504
AU2347   AU        0.402557    0.105396    0.536783     0.007504
AU2348   AU        0.400367    0.139856    0.504729     0.007504
AU2349   AU        0.434040    0.105667    0.501656     0.007504
AU2350   AU        0.434798    0.140718    0.535731     0.007504
AU2351   AU        0.467423    0.104088    0.535796     0.007504
AU2352   AU        0.469551    0.136378    0.501944     0.007504
PD2353   PD        0.503303    0.105720    0.503748     0.005394
AU2354   AU        0.500716    0.138534    0.537323     0.007504
AU2355   AU        0.535092    0.103892    0.537016     0.007504
PD2356   PD        0.535250    0.137440    0.504837     0.005394
PD2357   PD        0.566302    0.105455    0.502906     0.005394
AU2358   AU        0.567522    0.138984    0.534088     0.007504
AU2359   AU        0.597272    0.105474    0.533499     0.007504
PD2360   PD        0.600739    0.141090    0.502969     0.005394
AU2361   AU        0.631340    0.106288    0.500892     0.007504
PD2362   PD        0.634107    0.138132    0.534766     0.005394
PD2363   PD        0.665837    0.138035    0.500449     0.005394
PD2364   PD        0.137975    0.201739    0.499584     0.005394
AU2365   AU        0.170919    0.170543    0.502335     0.007504
AU2366   AU        0.170273    0.201477    0.535574     0.007504
AU2367   AU        0.204558    0.170808    0.536630     0.007504
AU2368   AU        0.203421    0.204675    0.502018     0.007504
AU2369   AU        0.235315    0.171915    0.501670     0.007504
AU2370   AU        0.237034    0.205600    0.534795     0.007504
PD2371   PD        0.272053    0.172976    0.534953     0.005394
PD2372   PD        0.270306    0.202676    0.500689     0.005394
PD2373   PD        0.301261    0.170947    0.502122     0.005394
AU2374   AU        0.302453    0.205471    0.534488     0.007504
PD2375   PD        0.336188    0.171474    0.534823     0.005394
AU2376   AU        0.334284    0.203679    0.501769     0.007504
PD2377   PD        0.369077    0.169881    0.502246     0.005394
PD2378   PD        0.367527    0.202240    0.534845     0.005394
PD2379   PD        0.403868    0.173464    0.534551     0.005394
PD2380   PD        0.402350    0.204211    0.499365     0.005394
AU2381   AU        0.436559    0.168787    0.500630     0.007504
AU2382   AU        0.437263    0.204894    0.533129     0.007504
AU2383   AU        0.467097    0.172186    0.536184     0.007504
AU2384   AU        0.469122    0.203529    0.500921     0.007504
AU2385   AU        0.501992    0.170549    0.502734     0.007504
AU2386   AU        0.501190    0.203522    0.533568     0.007504
PD2387   PD        0.533518    0.171356    0.536155     0.005394
PD2388   PD        0.536756    0.205505    0.504388     0.005394
PD2389   PD        0.566040    0.170128    0.501988     0.005394
PD2390   PD        0.569474    0.203450    0.535872     0.005394
PD2391   PD        0.602859    0.170289    0.535219     0.005394
PD2392   PD        0.599103    0.202180    0.503458     0.005394
AU2393   AU        0.635272    0.170727    0.503878     0.007504
AU2394   AU        0.635510    0.204638    0.533872     0.007504
PD2395   PD        0.668343    0.168692    0.535895     0.005394
PD2396   PD        0.666499    0.202421    0.503024     0.005394
PD2397   PD        0.700498    0.169775    0.501683     0.005394
PD2398   PD        0.702475    0.201928    0.535435     0.005394
AU2399   AU        0.735475    0.204238    0.503537     0.007504
PD2400   PD        0.072238    0.268898    0.501534     0.005394
PD2401   PD        0.105327    0.233335    0.502842     0.005394
AU2402   AU        0.102029    0.270364    0.534331     0.007504
AU2403   AU        0.138807    0.237209    0.535410     0.007504
AU2404   AU        0.136782    0.268508    0.502032     0.007504
AU2405   AU        0.171252    0.237755    0.503613     0.007504
AU2406   AU        0.170788    0.269953    0.534856     0.007504
AU2407   AU        0.202886    0.235193    0.535966     0.007504
AU2408   AU        0.202459    0.273013    0.501205     0.007504
AU2409   AU        0.235218    0.238895    0.502571     0.007504
AU2410   AU        0.235929    0.270804    0.535180     0.007504
AU2411   AU        0.267931    0.239160    0.534527     0.007504
AU2412   AU        0.267995    0.269910    0.501086     0.007504
PD2413   PD        0.304209    0.238164    0.504674     0.005394
AU2414   AU        0.302402    0.270297    0.535396     0.007504
PD2415   PD        0.335547    0.240125    0.536667     0.005394
AU2416   AU        0.336001    0.269757    0.501912     0.007504
PD2417   PD        0.369173    0.237151    0.502973     0.005394
AU2418   AU        0.371785    0.270426    0.533339     0.007504
AU2419   AU        0.401831    0.236951    0.533852     0.007504
AU2420   AU        0.403830    0.269952    0.501467     0.007504
AU2421   AU        0.435272    0.237873    0.503827     0.007504
AU2422   AU        0.435075    0.270171    0.533940     0.007504
AU2423   AU        0.469861    0.238861    0.535307     0.007504
PD2424   PD        0.470363    0.267857    0.501603     0.005394
AU2425   AU        0.504139    0.236248    0.501989     0.007504
AU2426   AU        0.502964    0.270579    0.536437     0.007504
AU2427   AU        0.533182    0.236485    0.536764     0.007504
AU2428   AU        0.536119    0.270950    0.502246     0.007504
AU2429   AU        0.568963    0.237654    0.505837     0.007504
AU2430   AU        0.566215    0.269785    0.537347     0.007504
PD2431   PD        0.600805    0.237488    0.535376     0.005394
PD2432   PD        0.599192    0.270831    0.504947     0.005394
PD2433   PD        0.634765    0.241046    0.500623     0.005394
PD2434   PD        0.634462    0.271471    0.537326     0.005394
PD2435   PD        0.667788    0.236327    0.535494     0.005394
PD2436   PD        0.666399    0.273239    0.502148     0.005394
PD2437   PD        0.699273    0.241138    0.504532     0.005394
PD2438   PD        0.699500    0.271524    0.536673     0.005394
AU2439   AU        0.733245    0.237799    0.535461     0.007504
PD2440   PD        0.734007    0.270818    0.502189     0.005394
PD2441   PD        0.766950    0.241012    0.501840     0.005394
PD2442   PD        0.766560    0.271007    0.537046     0.005394
PD2443   PD        0.803178    0.271407    0.497019     0.005394
PD2444   PD        0.068695    0.304022    0.533396     0.005394
AU2445   AU        0.071755    0.336556    0.501647     0.007504
AU2446   AU        0.103245    0.303023    0.501317     0.007504
AU2447   AU        0.105337    0.338095    0.535949     0.007504
AU2448   AU        0.136490    0.302582    0.536036     0.007504
AU2449   AU        0.135969    0.334482    0.501795     0.007504
PD2450   PD        0.169017    0.305006    0.503305     0.005394
PD2451   PD        0.170255    0.335330    0.539293     0.005394
AU2452   AU        0.204130    0.303847    0.535248     0.007504
AU2453   AU        0.203786    0.337010    0.505194     0.007504
PD2454   PD        0.237649    0.304329    0.503684     0.005394
PD2455   PD        0.236753    0.337454    0.537137     0.005394
AU2456   AU        0.270064    0.303005    0.533619     0.007504
AU2457   AU        0.271341    0.337629    0.502357     0.007504
AU2458   AU        0.304026    0.303656    0.500702     0.007504
PD2459   PD        0.304685    0.337119    0.538108     0.005394
PD2460   PD        0.335110    0.303056    0.538742     0.005394
AU2461   AU        0.338647    0.336665    0.499496     0.007504
PD2462   PD        0.368948    0.302024    0.501213     0.005394
PD2463   PD        0.371688    0.335241    0.535927     0.005394
PD2464   PD        0.402627    0.302351    0.535331     0.005394
AU2465   AU        0.403378    0.338248    0.502457     0.007504
PD2466   PD        0.434074    0.302180    0.502793     0.005394
AU2467   AU        0.435389    0.335922    0.535207     0.007504
AU2468   AU        0.466796    0.301787    0.533190     0.007504
AU2469   AU        0.467987    0.336432    0.501355     0.007504
PD2470   PD        0.503895    0.305360    0.503538     0.005394
PD2471   PD        0.499247    0.336075    0.533427     0.005394
PD2472   PD        0.534996    0.305073    0.534771     0.005394
AU2473   AU        0.533896    0.338165    0.503410     0.007504
AU2474   AU        0.568063    0.305150    0.502803     0.007504
PD2475   PD        0.569318    0.339113    0.537379     0.005394
PD2476   PD        0.601222    0.303184    0.535128     0.005394
AU2477   AU        0.600873    0.338505    0.499610     0.007504
PD2478   PD        0.631973    0.302905    0.501888     0.005394
AU2479   AU        0.634000    0.341501    0.534623     0.007504
PD2480   PD        0.666553    0.305237    0.535622     0.005394
AU2481   AU        0.667960    0.339577    0.502470     0.007504
PD2482   PD        0.701739    0.304042    0.502476     0.005394
AU2483   AU        0.702277    0.338700    0.535430     0.007504
PD2484   PD        0.732456    0.303463    0.534374     0.005394
AU2485   AU        0.732770    0.336867    0.502010     0.007504
PD2486   PD        0.765664    0.302955    0.502788     0.005394
AU2487   AU        0.765402    0.340367    0.535428     0.007504
PD2488   PD        0.830942    0.237518    0.516219     0.005394
AU2489   AU        0.798198    0.339458    0.505425     0.007504
AU2490   AU        0.073738    0.371144    0.534469     0.007504
AU2491   AU        0.073581    0.404547    0.501889     0.007504
AU2492   AU        0.104088    0.369446    0.501077     0.007504
AU2493   AU        0.107706    0.403164    0.536082     0.007504
PD2494   PD        0.139921    0.369502    0.535127     0.005394
PD2495   PD        0.138011    0.400998    0.504221     0.005394
PD2496   PD        0.169284    0.367929    0.506276     0.005394
PD2497   PD        0.170352    0.404273    0.537489     0.005394
PD2498   PD        0.201115    0.369019    0.536177     0.005394
PD2499   PD        0.203058    0.403870    0.501911     0.005394
PD2500   PD        0.235450    0.369812    0.499444     0.005394
PD2501   PD        0.234131    0.401482    0.535576     0.005394
AU2502   AU        0.270106    0.369581    0.535435     0.007504
AU2503   AU        0.268057    0.401969    0.503258     0.007504
AU2504   AU        0.304191    0.368497    0.501715     0.007504
PD2505   PD        0.304617    0.404549    0.534142     0.005394
AU2506   AU        0.336770    0.370745    0.534925     0.007504
AU2507   AU        0.336628    0.405104    0.501846     0.007504
PD2508   PD        0.370050    0.370011    0.504153     0.005394
PD2509   PD        0.367790    0.402618    0.535884     0.005394
AU2510   AU        0.402857    0.371823    0.534925     0.007504
PD2511   PD        0.402848    0.403939    0.502574     0.005394
AU2512   AU        0.435325    0.369998    0.503492     0.007504
PD2513   PD        0.436499    0.405393    0.535471     0.005394
PD2514   PD        0.467513    0.370044    0.533620     0.005394
AU2515   AU        0.468767    0.403679    0.502390     0.007504
AU2516   AU        0.501447    0.371857    0.501123     0.007504
PD2517   PD        0.502370    0.401760    0.537029     0.005394
PD2518   PD        0.534916    0.368880    0.536647     0.005394
PD2519   PD        0.534542    0.403725    0.502794     0.005394
PD2520   PD        0.569048    0.371964    0.500679     0.005394
AU2521   AU        0.568425    0.402278    0.535873     0.007504
AU2522   AU        0.600392    0.370441    0.534264     0.007504
AU2523   AU        0.603504    0.405672    0.502815     0.007504
PD2524   PD        0.636819    0.374774    0.501684     0.005394
PD2525   PD        0.632287    0.403504    0.536777     0.005394
PD2526   PD        0.668238    0.371403    0.536564     0.005394
PD2527   PD        0.668296    0.405208    0.506792     0.005394
AU2528   AU        0.701425    0.371005    0.501148     0.007504
PD2529   PD        0.702830    0.403390    0.537332     0.005394
PD2530   PD        0.732948    0.370911    0.535837     0.005394
PD2531   PD        0.734590    0.404123    0.502296     0.005394
AU2532   AU        0.765718    0.371546    0.502476     0.007504
PD2533   PD        0.767437    0.402350    0.536931     0.005394
PD2534   PD        0.797844    0.371947    0.536856     0.005394
AU2535   AU        0.798957    0.403994    0.504231     0.007504
PD2536   PD        0.000667    0.476927    0.497998     0.005394
AU2537   AU        0.076165    0.437292    0.534895     0.007504
AU2538   AU        0.076383    0.469653    0.500577     0.007504
PD2539   PD        0.106963    0.435545    0.502037     0.005394
PD2540   PD        0.106407    0.469875    0.535110     0.005394
PD2541   PD        0.137166    0.437538    0.535809     0.005394
PD2542   PD        0.137830    0.471513    0.502972     0.005394
PD2543   PD        0.170613    0.437538    0.502555     0.005394
PD2544   PD        0.170585    0.472143    0.534171     0.005394
PD2545   PD        0.201701    0.437789    0.536273     0.005394
AU2546   AU        0.204186    0.471108    0.501485     0.007504
AU2547   AU        0.236458    0.435775    0.501805     0.007504
AU2548   AU        0.237222    0.469946    0.534339     0.007504
AU2549   AU        0.268710    0.435950    0.534839     0.007504
AU2550   AU        0.269850    0.470954    0.502197     0.007504
AU2551   AU        0.303688    0.436538    0.502930     0.007504
PD2552   PD        0.304277    0.470239    0.536161     0.005394
PD2553   PD        0.338057    0.437543    0.534273     0.005394
AU2554   AU        0.338472    0.471299    0.502276     0.007504
AU2555   AU        0.370211    0.436384    0.501647     0.007504
AU2556   AU        0.370266    0.470125    0.536241     0.007504
AU2557   AU        0.403615    0.438241    0.534385     0.007504
AU2558   AU        0.401912    0.469404    0.501256     0.007504
AU2559   AU        0.437246    0.436409    0.501686     0.007504
AU2560   AU        0.435915    0.469591    0.533908     0.007504
PD2561   PD        0.470920    0.437092    0.537693     0.005394
AU2562   AU        0.471755    0.471312    0.501901     0.007504
AU2563   AU        0.503307    0.435496    0.502801     0.007504
AU2564   AU        0.503470    0.469838    0.535810     0.007504
AU2565   AU        0.536415    0.436652    0.535707     0.007504
PD2566   PD        0.535662    0.469215    0.503114     0.005394
AU2567   AU        0.569905    0.437413    0.502296     0.007504
AU2568   AU        0.566577    0.472271    0.533327     0.007504
PD2569   PD        0.599446    0.437732    0.536422     0.005394
PD2570   PD        0.602428    0.470357    0.501737     0.005394
AU2571   AU        0.634899    0.438354    0.503589     0.007504
AU2572   AU        0.634231    0.471534    0.535082     0.007504
PD2573   PD        0.666687    0.437407    0.536764     0.005394
AU2574   AU        0.668409    0.470426    0.500459     0.007504
AU2575   AU        0.701482    0.436748    0.503980     0.007504
PD2576   PD        0.702475    0.469026    0.537548     0.005394
AU2577   AU        0.735317    0.434861    0.534638     0.007504
AU2578   AU        0.734094    0.470366    0.501821     0.007504
PD2579   PD        0.770074    0.438264    0.501410     0.005394
PD2580   PD        0.765826    0.470008    0.533882     0.005394
AU2581   AU        0.799342    0.438862    0.535478     0.007504
PD2582   PD        0.799776    0.470840    0.499999     0.005394
PD2583   PD        0.832667    0.408348    0.537358     0.005394
AU2584   AU        0.072692    0.503033    0.537375     0.007504
AU2585   AU        0.073876    0.535920    0.503235     0.007504
AU2586   AU        0.104683    0.504461    0.502345     0.007504
PD2587   PD        0.102838    0.536427    0.536658     0.005394
PD2588   PD        0.135865    0.504559    0.535346     0.005394
AU2589   AU        0.137783    0.537302    0.502093     0.007504
AU2590   AU        0.171044    0.504632    0.498411     0.007504
AU2591   AU        0.169962    0.537265    0.535822     0.007504
AU2592   AU        0.203049    0.505099    0.535327     0.007504
AU2593   AU        0.204586    0.538702    0.502756     0.007504
AU2594   AU        0.235092    0.504357    0.500289     0.007504
PD2595   PD        0.238916    0.537330    0.534405     0.005394
PD2596   PD        0.269384    0.504377    0.533590     0.005394
AU2597   AU        0.271130    0.535950    0.501927     0.007504
PD2598   PD        0.305787    0.503699    0.501257     0.005394
AU2599   AU        0.304361    0.536524    0.534316     0.007504
AU2600   AU        0.338578    0.504119    0.535150     0.007504
AU2601   AU        0.337356    0.536880    0.500341     0.007504
AU2602   AU        0.370935    0.503401    0.501200     0.007504
AU2603   AU        0.370278    0.537571    0.534092     0.007504
PD2604   PD        0.402448    0.502973    0.534890     0.005394
AU2605   AU        0.404261    0.537644    0.502729     0.007504
AU2606   AU        0.433680    0.502513    0.503028     0.007504
PD2607   PD        0.437684    0.536344    0.534294     0.005394
PD2608   PD        0.472088    0.504066    0.535815     0.005394
AU2609   AU        0.468330    0.535469    0.500476     0.007504
AU2610   AU        0.502399    0.504291    0.501887     0.007504
PD2611   PD        0.503953    0.538487    0.535779     0.005394
AU2612   AU        0.534370    0.503466    0.534113     0.007504
AU2613   AU        0.535181    0.537930    0.501861     0.007504
AU2614   AU        0.568351    0.505787    0.501131     0.007504
AU2615   AU        0.567339    0.535587    0.536868     0.007504
AU2616   AU        0.601577    0.504470    0.534691     0.007504
AU2617   AU        0.601443    0.536681    0.502716     0.007504
AU2618   AU        0.634089    0.505641    0.501291     0.007504
PD2619   PD        0.635723    0.537526    0.534994     0.005394
AU2620   AU        0.668560    0.505935    0.533922     0.007504
AU2621   AU        0.667944    0.540580    0.499713     0.007504
PD2622   PD        0.701561    0.503663    0.501431     0.005394
PD2623   PD        0.701355    0.537020    0.531511     0.005394
PD2624   PD        0.735477    0.503729    0.534637     0.005394
AU2625   AU        0.736440    0.539473    0.501118     0.007504
PD2626   PD        0.766524    0.502286    0.501603     0.005394
PD2627   PD        0.766534    0.536869    0.535076     0.005394
AU2628   AU        0.799840    0.501779    0.534543     0.007504
AU2629   AU        0.800048    0.538445    0.501951     0.007504
PD2630   PD        0.026656    0.567090    0.513565     0.005394
PD2631   PD        0.070183    0.602710    0.503280     0.005394
AU2632   AU        0.104283    0.570567    0.501332     0.007504
AU2633   AU        0.103676    0.600884    0.534451     0.007504
PD2634   PD        0.140220    0.571216    0.535306     0.005394
AU2635   AU        0.140390    0.603779    0.502837     0.007504
PD2636   PD        0.172046    0.571748    0.499881     0.005394
PD2637   PD        0.171123    0.603919    0.536469     0.005394
AU2638   AU        0.205343    0.571093    0.534109     0.007504
PD2639   PD        0.205858    0.606330    0.499507     0.005394
AU2640   AU        0.238717    0.571338    0.501543     0.007504
PD2641   PD        0.238624    0.604867    0.534849     0.005394
AU2642   AU        0.271084    0.571490    0.534530     0.007504
AU2643   AU        0.273023    0.605309    0.502639     0.007504
AU2644   AU        0.304619    0.569340    0.503357     0.007504
AU2645   AU        0.303708    0.605483    0.536176     0.007504
PD2646   PD        0.337367    0.569763    0.536956     0.005394
AU2647   AU        0.336533    0.603837    0.502638     0.007504
AU2648   AU        0.369606    0.570715    0.500212     0.007504
PD2649   PD        0.370720    0.603633    0.536521     0.005394
AU2650   AU        0.402868    0.571363    0.535088     0.007504
PD2651   PD        0.405548    0.601739    0.502764     0.005394
AU2652   AU        0.436863    0.568689    0.502646     0.007504
AU2653   AU        0.437542    0.604570    0.535754     0.007504
PD2654   PD        0.470012    0.569567    0.534055     0.005394
AU2655   AU        0.469036    0.603050    0.501647     0.007504
PD2656   PD        0.504071    0.570625    0.500394     0.005394
AU2657   AU        0.501610    0.602981    0.533199     0.007504
AU2658   AU        0.533541    0.570348    0.537437     0.007504
AU2659   AU        0.535728    0.602560    0.501282     0.007504
AU2660   AU        0.568458    0.569098    0.503231     0.007504
PD2661   PD        0.567637    0.603954    0.534836     0.005394
AU2662   AU        0.601267    0.568867    0.535864     0.007504
AU2663   AU        0.601867    0.603097    0.503382     0.007504
AU2664   AU        0.636753    0.572478    0.500450     0.007504
AU2665   AU        0.634981    0.605568    0.536359     0.007504
AU2666   AU        0.669166    0.571621    0.533619     0.007504
AU2667   AU        0.670010    0.604832    0.499555     0.007504
PD2668   PD        0.701262    0.570426    0.501744     0.005394
PD2669   PD        0.702669    0.604401    0.534819     0.005394
PD2670   PD        0.735246    0.572605    0.538222     0.005394
PD2671   PD        0.733059    0.601365    0.501053     0.005394
AU2672   AU        0.766757    0.572410    0.502157     0.007504
PD2673   PD        0.767118    0.602595    0.533625     0.005394
AU2674   AU        0.799221    0.568753    0.535661     0.007504
PD2675   PD        0.805124    0.604386    0.503381     0.005394
AU2676   AU        0.102805    0.634331    0.500360     0.007504
PD2677   PD        0.135341    0.637289    0.535482     0.005394
PD2678   PD        0.137690    0.665590    0.500797     0.005394
PD2679   PD        0.172569    0.635992    0.503322     0.005394
PD2680   PD        0.172333    0.668425    0.533103     0.005394
PD2681   PD        0.205926    0.634952    0.534209     0.005394
PD2682   PD        0.206941    0.669170    0.502885     0.005394
AU2683   AU        0.239425    0.637415    0.499377     0.007504
AU2684   AU        0.238096    0.669297    0.534399     0.007504
PD2685   PD        0.272098    0.638417    0.536801     0.005394
AU2686   AU        0.270368    0.669422    0.500523     0.007504
AU2687   AU        0.302299    0.638801    0.501449     0.007504
PD2688   PD        0.304620    0.671356    0.535345     0.005394
AU2689   AU        0.333571    0.638724    0.535148     0.007504
AU2690   AU        0.336629    0.669916    0.502503     0.007504
PD2691   PD        0.370589    0.638371    0.501749     0.005394
PD2692   PD        0.367713    0.668500    0.535557     0.005394
AU2693   AU        0.402853    0.636491    0.537638     0.007504
PD2694   PD        0.403704    0.668829    0.503065     0.005394
PD2695   PD        0.437688    0.636371    0.502102     0.005394
AU2696   AU        0.437753    0.669617    0.533117     0.007504
AU2697   AU        0.470378    0.635435    0.534822     0.007504
PD2698   PD        0.470776    0.670087    0.502884     0.005394
PD2699   PD        0.501644    0.636310    0.499903     0.005394
AU2700   AU        0.501876    0.668981    0.535408     0.007504
AU2701   AU        0.534147    0.636483    0.534960     0.007504
AU2702   AU        0.531293    0.671484    0.499489     0.007504
AU2703   AU        0.568206    0.636370    0.500933     0.007504
PD2704   PD        0.567340    0.668161    0.532137     0.005394
PD2705   PD        0.601364    0.634604    0.534878     0.005394
PD2706   PD        0.605060    0.669707    0.502760     0.005394
AU2707   AU        0.635666    0.635623    0.500425     0.007504
PD2708   PD        0.636100    0.669335    0.534532     0.005394
PD2709   PD        0.666859    0.639305    0.537041     0.005394
AU2710   AU        0.666985    0.669083    0.499202     0.007504
AU2711   AU        0.702132    0.638176    0.499598     0.007504
AU2712   AU        0.702275    0.668757    0.532452     0.007504
PD2713   PD        0.733982    0.634703    0.532523     0.005394
AU2714   AU        0.733602    0.670132    0.499250     0.007504
AU2715   AU        0.765672    0.637887    0.502237     0.007504
PD2716   PD        0.169516    0.702874    0.502410     0.005394
PD2717   PD        0.206634    0.701506    0.533875     0.005394
PD2718   PD        0.205432    0.736742    0.501600     0.005394
AU2719   AU        0.238493    0.705595    0.501732     0.007504
PD2720   PD        0.234381    0.736485    0.537464     0.005394
AU2721   AU        0.273352    0.702345    0.535549     0.007504
AU2722   AU        0.273014    0.736357    0.502300     0.007504
AU2723   AU        0.305675    0.702292    0.500566     0.007504
AU2724   AU        0.305039    0.733825    0.534974     0.007504
PD2725   PD        0.337373    0.700417    0.533631     0.005394
AU2726   AU        0.338441    0.734986    0.501238     0.007504
PD2727   PD        0.369952    0.703598    0.499148     0.005394
AU2728   AU        0.369993    0.734221    0.535528     0.007504
AU2729   AU        0.405710    0.705046    0.535121     0.007504
AU2730   AU        0.403314    0.735101    0.500674     0.007504
AU2731   AU        0.437259    0.703888    0.502399     0.007504
PD2732   PD        0.435606    0.736578    0.533062     0.005394
AU2733   AU        0.468906    0.703067    0.534683     0.007504
PD2734   PD        0.469110    0.737064    0.501779     0.005394
AU2735   AU        0.502192    0.705380    0.501464     0.007504
PD2736   PD        0.501301    0.736896    0.535514     0.005394
AU2737   AU        0.533557    0.703041    0.534200     0.007504
PD2738   PD        0.537808    0.733926    0.500307     0.005394
PD2739   PD        0.569744    0.702775    0.504137     0.005394
PD2740   PD        0.567606    0.737086    0.534659     0.005394
AU2741   AU        0.603099    0.703049    0.534363     0.007504
AU2742   AU        0.602341    0.734967    0.501300     0.007504
PD2743   PD        0.634902    0.704740    0.500261     0.005394
AU2744   AU        0.635361    0.736086    0.535153     0.007504
AU2745   AU        0.667813    0.702678    0.534084     0.007504
AU2746   AU        0.667172    0.736791    0.503426     0.007504
AU2747   AU        0.699651    0.703598    0.500732     0.007504
AU2748   AU        0.241043    0.768643    0.502742     0.007504
PD2749   PD        0.270796    0.771637    0.535295     0.005394
AU2750   AU        0.272176    0.803959    0.500692     0.007504
AU2751   AU        0.305265    0.768863    0.501417     0.007504
PD2752   PD        0.305683    0.801985    0.536045     0.005394
AU2753   AU        0.337927    0.769096    0.536017     0.007504
AU2754   AU        0.337323    0.802932    0.501352     0.007504
PD2755   PD        0.368710    0.768593    0.501128     0.005394
AU2756   AU        0.371009    0.803908    0.535654     0.007504
PD2757   PD        0.402490    0.769213    0.535549     0.005394
PD2758   PD        0.403374    0.803427    0.502593     0.005394
AU2759   AU        0.437131    0.769837    0.503280     0.007504
AU2760   AU        0.437613    0.801334    0.535527     0.007504
PD2761   PD        0.471247    0.769601    0.537051     0.005394
PD2762   PD        0.470990    0.803403    0.501793     0.005394
AU2763   AU        0.503591    0.769160    0.501894     0.007504
PD2764   PD        0.503077    0.802739    0.535438     0.005394
AU2765   AU        0.535878    0.768709    0.536152     0.007504
AU2766   AU        0.537533    0.800981    0.503791     0.007504
AU2767   AU        0.569451    0.767632    0.501185     0.007504
PD2768   PD        0.573057    0.799948    0.533277     0.005394
PD2769   PD        0.600226    0.767028    0.533272     0.005394
PD2770   PD        0.601706    0.802510    0.501637     0.005394
PD2771   PD        0.635239    0.768997    0.500290     0.005394
PD2772   PD        0.436362    0.832548    0.503702     0.005394
PD2773   PD        0.334216    0.073225    0.567723     0.005394
PD2774   PD        0.370710    0.071581    0.601619     0.005394
PD2775   PD        0.402185    0.073275    0.568400     0.005394
PD2776   PD        0.438565    0.072387    0.602601     0.005394
AU2777   AU        0.467165    0.072707    0.567284     0.007504
PD2778   PD        0.501827    0.070859    0.597717     0.005394
PD2779   PD        0.536312    0.077932    0.567201     0.005394
PD2780   PD        0.201404    0.138030    0.568426     0.005394
PD2781   PD        0.233766    0.139288    0.600865     0.005394
PD2782   PD        0.234492    0.070910    0.599706     0.005394
AU2783   AU        0.270000    0.139990    0.566599     0.007504
AU2784   AU        0.301498    0.107139    0.568960     0.007504
PD2785   PD        0.302226    0.139332    0.602419     0.005394
PD2786   PD        0.335880    0.108083    0.600763     0.005394
AU2787   AU        0.334508    0.138851    0.570209     0.007504
AU2788   AU        0.369211    0.106582    0.570089     0.007504
AU2789   AU        0.368907    0.141282    0.601232     0.007504
AU2790   AU        0.403352    0.104630    0.601118     0.007504
AU2791   AU        0.402293    0.139755    0.569577     0.007504
AU2792   AU        0.434808    0.107019    0.567489     0.007504
AU2793   AU        0.434399    0.138145    0.601476     0.007504
PD2794   PD        0.469179    0.107249    0.600474     0.005394
AU2795   AU        0.468781    0.138487    0.568615     0.007504
AU2796   AU        0.500243    0.103166    0.566890     0.007504
AU2797   AU        0.502048    0.136488    0.600908     0.007504
AU2798   AU        0.534548    0.107035    0.601420     0.007504
PD2799   PD        0.534775    0.136916    0.569250     0.005394
PD2800   PD        0.568199    0.104572    0.567063     0.005394
AU2801   AU        0.568742    0.137223    0.601471     0.007504
PD2802   PD        0.638893    0.070747    0.600441     0.005394
PD2803   PD        0.599341    0.139301    0.568710     0.005394
AU2804   AU        0.631428    0.137586    0.600004     0.007504
AU2805   AU        0.665094    0.135796    0.567435     0.007504
PD2806   PD        0.139111    0.203784    0.565485     0.005394
AU2807   AU        0.169180    0.169207    0.569407     0.007504
PD2808   PD        0.169610    0.204726    0.600724     0.005394
AU2809   AU        0.202234    0.171757    0.601903     0.007504
AU2810   AU        0.201856    0.203842    0.568093     0.007504
AU2811   AU        0.237570    0.172022    0.567576     0.007504
AU2812   AU        0.235848    0.205245    0.600062     0.007504
AU2813   AU        0.268286    0.170940    0.600833     0.007504
AU2814   AU        0.270099    0.204773    0.568762     0.007504
PD2815   PD        0.302731    0.171817    0.567123     0.005394
AU2816   AU        0.301363    0.204785    0.602380     0.007504
PD2817   PD        0.333025    0.172685    0.601387     0.005394
AU2818   AU        0.334579    0.202733    0.568217     0.007504
PD2819   PD        0.366865    0.170362    0.567285     0.005394
PD2820   PD        0.368085    0.204333    0.603937     0.005394
PD2821   PD        0.401393    0.169544    0.602302     0.005394
AU2822   AU        0.402814    0.203769    0.567822     0.007504
PD2823   PD        0.435937    0.170780    0.571462     0.005394
AU2824   AU        0.435904    0.204214    0.602725     0.007504
AU2825   AU        0.467536    0.171062    0.602494     0.007504
AU2826   AU        0.467794    0.203471    0.567796     0.007504
PD2827   PD        0.502272    0.169919    0.569301     0.005394
AU2828   AU        0.500151    0.204555    0.600837     0.007504
AU2829   AU        0.533718    0.170636    0.602661     0.007504
PD2830   PD        0.534195    0.205098    0.569082     0.005394
PD2831   PD        0.566629    0.173489    0.569633     0.005394
PD2832   PD        0.567594    0.206068    0.600585     0.005394
PD2833   PD        0.600579    0.173628    0.601689     0.005394
PD2834   PD        0.603500    0.204947    0.568898     0.005394
AU2835   AU        0.633572    0.171261    0.568456     0.007504
AU2836   AU        0.635609    0.205039    0.600121     0.007504
AU2837   AU        0.665809    0.169710    0.601110     0.007504
AU2838   AU        0.669267    0.201201    0.566745     0.007504
PD2839   PD        0.736633    0.169291    0.535075     0.005394
PD2840   PD        0.699581    0.171977    0.630485     0.005394
PD2841   PD        0.729735    0.206536    0.566962     0.005394
PD2842   PD        0.103283    0.269840    0.604206     0.005394
AU2843   AU        0.139808    0.237379    0.602043     0.007504
AU2844   AU        0.138545    0.269820    0.568092     0.007504
PD2845   PD        0.173261    0.238086    0.567665     0.005394
PD2846   PD        0.171063    0.269375    0.599826     0.005394
AU2847   AU        0.204069    0.237605    0.600294     0.007504
AU2848   AU        0.203046    0.271938    0.568628     0.007504
AU2849   AU        0.235945    0.237275    0.568656     0.007504
PD2850   PD        0.234715    0.271205    0.602114     0.005394
PD2851   PD        0.269146    0.237731    0.602005     0.005394
PD2852   PD        0.269762    0.269516    0.566870     0.005394
AU2853   AU        0.300749    0.237299    0.567494     0.007504
AU2854   AU        0.302853    0.269992    0.600684     0.007504
PD2855   PD        0.334973    0.235255    0.602597     0.005394
PD2856   PD        0.336126    0.270707    0.569026     0.005394
AU2857   AU        0.367593    0.237812    0.569459     0.007504
PD2858   PD        0.370755    0.269268    0.603250     0.005394
AU2859   AU        0.402259    0.236366    0.602361     0.007504
PD2860   PD        0.401612    0.268954    0.567954     0.005394
PD2861   PD        0.435630    0.238558    0.567404     0.005394
PD2862   PD        0.434214    0.269965    0.599739     0.005394
AU2863   AU        0.469530    0.238628    0.601903     0.007504
AU2864   AU        0.470657    0.270694    0.569480     0.007504
AU2865   AU        0.501356    0.237337    0.568138     0.007504
AU2866   AU        0.501302    0.271102    0.602042     0.007504
AU2867   AU        0.533650    0.237548    0.601073     0.007504
AU2868   AU        0.534362    0.271284    0.570622     0.007504
AU2869   AU        0.568043    0.235952    0.567999     0.007504
PD2870   PD        0.568507    0.269097    0.600155     0.005394
AU2871   AU        0.599510    0.236502    0.600857     0.007504
AU2872   AU        0.601140    0.272021    0.569179     0.007504
PD2873   PD        0.635158    0.235909    0.568529     0.005394
PD2874   PD        0.635624    0.272426    0.602190     0.005394
AU2875   AU        0.668492    0.237546    0.601354     0.007504
PD2876   PD        0.665526    0.273012    0.569662     0.005394
PD2877   PD        0.699651    0.238916    0.566904     0.005394
AU2878   AU        0.699892    0.271487    0.601335     0.007504
AU2879   AU        0.730913    0.237844    0.602593     0.007504
AU2880   AU        0.733580    0.273186    0.567315     0.007504
PD2881   PD        0.764018    0.267921    0.599289     0.005394
AU2882   AU        0.069639    0.337807    0.568618     0.007504
AU2883   AU        0.103025    0.302999    0.567522     0.007504
PD2884   PD        0.106270    0.337694    0.599083     0.005394
PD2885   PD        0.137478    0.301725    0.600956     0.005394
PD2886   PD        0.136641    0.335459    0.567357     0.005394
PD2887   PD        0.170430    0.301772    0.569442     0.005394
AU2888   AU        0.169060    0.335435    0.601345     0.007504
AU2889   AU        0.204012    0.303596    0.602500     0.007504
PD2890   PD        0.203463    0.337188    0.570601     0.005394
AU2891   AU        0.235826    0.303184    0.567248     0.007504
PD2892   PD        0.237971    0.336029    0.602138     0.005394
AU2893   AU        0.270699    0.303040    0.599871     0.007504
PD2894   PD        0.269404    0.337142    0.568059     0.005394
AU2895   AU        0.302422    0.303665    0.570194     0.007504
AU2896   AU        0.303008    0.336781    0.600453     0.007504
AU2897   AU        0.338088    0.303297    0.601461     0.007504
AU2898   AU        0.338153    0.336223    0.569655     0.007504
PD2899   PD        0.371096    0.302962    0.568573     0.005394
AU2900   AU        0.371291    0.337056    0.601158     0.007504
PD2901   PD        0.404296    0.303668    0.601786     0.005394
AU2902   AU        0.402939    0.337626    0.567459     0.007504
AU2903   AU        0.434982    0.301125    0.567613     0.007504
AU2904   AU        0.437319    0.338274    0.601800     0.007504
PD2905   PD        0.468430    0.302608    0.601799     0.005394
AU2906   AU        0.467915    0.336488    0.567264     0.007504
AU2907   AU        0.501911    0.304531    0.567350     0.007504
AU2908   AU        0.498920    0.336526    0.600550     0.007504
AU2909   AU        0.534486    0.306179    0.602484     0.007504
AU2910   AU        0.533901    0.335985    0.569121     0.007504
PD2911   PD        0.566696    0.304719    0.570051     0.005394
AU2912   AU        0.568203    0.336848    0.600717     0.007504
AU2913   AU        0.600887    0.304683    0.602878     0.007504
AU2914   AU        0.601593    0.338154    0.569624     0.007504
PD2915   PD        0.634071    0.304842    0.568428     0.005394
AU2916   AU        0.634941    0.335883    0.601176     0.007504
PD2917   PD        0.667313    0.303749    0.600346     0.005394
AU2918   AU        0.668003    0.337646    0.569464     0.007504
AU2919   AU        0.701459    0.304779    0.570067     0.007504
AU2920   AU        0.700791    0.336154    0.601605     0.007504
AU2921   AU        0.735298    0.306053    0.603110     0.007504
AU2922   AU        0.733963    0.337510    0.569020     0.007504
PD2923   PD        0.766201    0.304923    0.568283     0.005394
AU2924   AU        0.767600    0.337784    0.598917     0.007504
PD2925   PD        0.802886    0.334892    0.566183     0.005394
PD2926   PD        0.074211    0.372213    0.600105     0.005394
PD2927   PD        0.076951    0.403056    0.567963     0.005394
AU2928   AU        0.107152    0.368773    0.567960     0.007504
PD2929   PD        0.104654    0.406755    0.603174     0.005394
AU2930   AU        0.137870    0.368727    0.600621     0.007504
PD2931   PD        0.139908    0.403886    0.572052     0.005394
PD2932   PD        0.169961    0.368030    0.569007     0.005394
AU2933   AU        0.168840    0.402844    0.600661     0.007504
AU2934   AU        0.202577    0.371889    0.602200     0.007504
PD2935   PD        0.204407    0.403463    0.570660     0.005394
PD2936   PD        0.238368    0.370977    0.569838     0.005394
PD2937   PD        0.238174    0.403670    0.602030     0.005394
PD2938   PD        0.268363    0.367593    0.601490     0.005394
PD2939   PD        0.267809    0.406429    0.567462     0.005394
PD2940   PD        0.304315    0.372311    0.569482     0.005394
PD2941   PD        0.299702    0.405752    0.600206     0.005394
AU2942   AU        0.335917    0.370101    0.601804     0.007504
PD2943   PD        0.336118    0.404346    0.568111     0.005394
AU2944   AU        0.369645    0.369050    0.568508     0.007504
AU2945   AU        0.369929    0.404180    0.601021     0.007504
AU2946   AU        0.403726    0.371758    0.603053     0.007504
AU2947   AU        0.402795    0.403666    0.569692     0.007504
PD2948   PD        0.436121    0.368648    0.568254     0.005394
AU2949   AU        0.437262    0.404394    0.602766     0.007504
AU2950   AU        0.469862    0.369669    0.601886     0.007504
PD2951   PD        0.467931    0.404225    0.569428     0.005394
AU2952   AU        0.501472    0.368787    0.569019     0.007504
PD2953   PD        0.500786    0.401333    0.600802     0.005394
AU2954   AU        0.536857    0.369232    0.603349     0.007504
AU2955   AU        0.534415    0.401609    0.566923     0.007504
PD2956   PD        0.568003    0.368665    0.571210     0.005394
PD2957   PD        0.568080    0.405685    0.599879     0.005394
PD2958   PD        0.599876    0.369889    0.604255     0.005394
AU2959   AU        0.600404    0.404340    0.569170     0.007504
AU2960   AU        0.635070    0.371694    0.569185     0.007504
AU2961   AU        0.634714    0.404347    0.602009     0.007504
AU2962   AU        0.666443    0.371323    0.601769     0.007504
PD2963   PD        0.667326    0.403340    0.568531     0.005394
AU2964   AU        0.700652    0.370481    0.568882     0.007504
AU2965   AU        0.701690    0.402887    0.599817     0.007504
PD2966   PD        0.734907    0.369924    0.604179     0.005394
AU2967   AU        0.734067    0.402936    0.568987     0.007504
PD2968   PD        0.765269    0.370617    0.569795     0.005394
PD2969   PD        0.767875    0.405503    0.600489     0.005394
PD2970   PD        0.799808    0.370687    0.602206     0.005394
PD2971   PD        0.799514    0.406944    0.567566     0.005394
PD2972   PD        0.072334    0.438977    0.602077     0.005394
PD2973   PD        0.074841    0.468273    0.568868     0.005394
PD2974   PD        0.106753    0.437926    0.570019     0.005394
AU2975   AU        0.105557    0.470608    0.601375     0.007504
AU2976   AU        0.138710    0.437620    0.601913     0.007504
PD2977   PD        0.138772    0.470773    0.569809     0.005394
AU2978   AU        0.170912    0.437697    0.569844     0.007504
PD2979   PD        0.170541    0.469879    0.601324     0.005394
AU2980   AU        0.202571    0.437349    0.603049     0.007504
PD2981   PD        0.203880    0.472380    0.566725     0.005394
PD2982   PD        0.236736    0.439344    0.568197     0.005394
PD2983   PD        0.237099    0.468932    0.601576     0.005394
PD2984   PD        0.271303    0.437702    0.603978     0.005394
PD2985   PD        0.270887    0.472997    0.567670     0.005394
AU2986   AU        0.301502    0.439126    0.569904     0.007504
PD2987   PD        0.302913    0.472602    0.600192     0.005394
AU2988   AU        0.335810    0.437315    0.600789     0.007504
PD2989   PD        0.336656    0.469957    0.568487     0.005394
AU2990   AU        0.369114    0.436314    0.570104     0.007504
AU2991   AU        0.370275    0.471623    0.601256     0.007504
AU2992   AU        0.403208    0.437310    0.601764     0.007504
PD2993   PD        0.404457    0.471587    0.570467     0.005394
AU2994   AU        0.435284    0.437049    0.567114     0.007504
PD2995   PD        0.437064    0.468378    0.602658     0.005394
AU2996   AU        0.469834    0.437741    0.599729     0.007504
AU2997   AU        0.467943    0.472375    0.569256     0.007504
AU2998   AU        0.503173    0.436553    0.567480     0.007504
AU2999   AU        0.503244    0.470251    0.599635     0.007504
PD3000   PD        0.533557    0.437522    0.602237     0.005394
AU3001   AU        0.536959    0.468714    0.567701     0.007504
AU3002   AU        0.568465    0.437049    0.567807     0.007504
AU3003   AU        0.567706    0.468709    0.601125     0.007504
AU3004   AU        0.600310    0.438354    0.603735     0.007504
AU3005   AU        0.602263    0.469506    0.567865     0.007504
PD3006   PD        0.632774    0.436820    0.568479     0.005394
PD3007   PD        0.635486    0.470673    0.600109     0.005394
AU3008   AU        0.667457    0.435751    0.600178     0.007504
PD3009   PD        0.667851    0.471488    0.569986     0.005394
PD3010   PD        0.702524    0.437817    0.571380     0.005394
AU3011   AU        0.701735    0.470979    0.601745     0.007504
PD3012   PD        0.734669    0.437212    0.602997     0.005394
PD3013   PD        0.735204    0.469693    0.567432     0.005394
AU3014   AU        0.767170    0.438722    0.568300     0.007504
AU3015   AU        0.766271    0.470262    0.602009     0.007504
PD3016   PD        0.801837    0.437314    0.600863     0.005394
PD3017   PD        0.800481    0.468959    0.567606     0.005394
PD3018   PD        0.069245    0.536805    0.631253     0.005394
AU3019   AU        0.072599    0.536181    0.568363     0.007504
AU3020   AU        0.105313    0.503377    0.568791     0.007504
AU3021   AU        0.102940    0.537416    0.601985     0.007504
PD3022   PD        0.137630    0.500764    0.602673     0.005394
PD3023   PD        0.137381    0.540140    0.571038     0.005394
PD3024   PD        0.168024    0.503563    0.568191     0.005394
AU3025   AU        0.169919    0.537747    0.603153     0.007504
AU3026   AU        0.204009    0.503254    0.601570     0.007504
AU3027   AU        0.203090    0.536204    0.567904     0.007504
AU3028   AU        0.236302    0.504229    0.566798     0.007504
AU3029   AU        0.237332    0.538918    0.602534     0.007504
PD3030   PD        0.267673    0.502279    0.603705     0.005394
PD3031   PD        0.269638    0.535492    0.570667     0.005394
PD3032   PD        0.304505    0.504593    0.566996     0.005394
PD3033   PD        0.304694    0.537041    0.599868     0.005394
PD3034   PD        0.336869    0.505308    0.602239     0.005394
AU3035   AU        0.336862    0.538935    0.569820     0.007504
PD3036   PD        0.371209    0.506402    0.568354     0.005394
AU3037   AU        0.370383    0.537957    0.602246     0.007504
PD3038   PD        0.404477    0.503823    0.604033     0.005394
PD3039   PD        0.404838    0.538966    0.568731     0.005394
AU3040   AU        0.435838    0.503624    0.565973     0.007504
PD3041   PD        0.437148    0.537602    0.600840     0.005394
PD3042   PD        0.471756    0.503296    0.600819     0.005394
PD3043   PD        0.469263    0.536759    0.566960     0.005394
AU3044   AU        0.504747    0.502844    0.569100     0.007504
AU3045   AU        0.503815    0.536389    0.602061     0.007504
AU3046   AU        0.536195    0.501643    0.602271     0.007504
AU3047   AU        0.535015    0.536396    0.568413     0.007504
AU3048   AU        0.567369    0.502877    0.568373     0.007504
PD3049   PD        0.568311    0.537289    0.602052     0.005394
AU3050   AU        0.599003    0.501764    0.600711     0.007504
PD3051   PD        0.600951    0.536155    0.567514     0.005394
AU3052   AU        0.635915    0.505139    0.566565     0.007504
PD3053   PD        0.636537    0.534834    0.600944     0.005394
PD3054   PD        0.668804    0.504464    0.601139     0.005394
PD3055   PD        0.668170    0.541633    0.569613     0.005394
PD3056   PD        0.701769    0.503897    0.568019     0.005394
PD3057   PD        0.700523    0.538584    0.600587     0.005394
AU3058   AU        0.734024    0.502814    0.601103     0.007504
PD3059   PD        0.733748    0.537622    0.568901     0.005394
AU3060   AU        0.766763    0.501617    0.568115     0.007504
AU3061   AU        0.766566    0.534644    0.601433     0.007504
PD3062   PD        0.799212    0.499353    0.601030     0.005394
AU3063   AU        0.801947    0.534755    0.568898     0.007504
PD3064   PD        0.104903    0.569751    0.570278     0.005394
PD3065   PD        0.106261    0.605920    0.600099     0.005394
AU3066   AU        0.136468    0.572009    0.602913     0.007504
PD3067   PD        0.138541    0.604885    0.568717     0.005394
PD3068   PD        0.171536    0.570220    0.570223     0.005394
PD3069   PD        0.170659    0.605619    0.601299     0.005394
AU3070   AU        0.204522    0.570378    0.601525     0.007504
AU3071   AU        0.204565    0.603470    0.569165     0.007504
AU3072   AU        0.235088    0.570554    0.567824     0.007504
AU3073   AU        0.236918    0.604371    0.601592     0.007504
AU3074   AU        0.269956    0.570704    0.601747     0.007504
AU3075   AU        0.270172    0.602815    0.568087     0.007504
AU3076   AU        0.302746    0.569834    0.568646     0.007504
AU3077   AU        0.301510    0.603206    0.602273     0.007504
AU3078   AU        0.336088    0.571290    0.601421     0.007504
AU3079   AU        0.335445    0.603660    0.569536     0.007504
PD3080   PD        0.370760    0.571419    0.568410     0.005394
AU3081   AU        0.371803    0.605101    0.601641     0.007504
AU3082   AU        0.403737    0.571647    0.601657     0.007504
AU3083   AU        0.404993    0.603185    0.570040     0.007504
PD3084   PD        0.439717    0.571107    0.568492     0.005394
PD3085   PD        0.437271    0.605563    0.601687     0.005394
AU3086   AU        0.469747    0.569922    0.601429     0.007504
AU3087   AU        0.470755    0.602021    0.568238     0.007504
AU3088   AU        0.501252    0.570296    0.568553     0.007504
AU3089   AU        0.501592    0.604195    0.601810     0.007504
PD3090   PD        0.532717    0.570959    0.601787     0.005394
AU3091   AU        0.533497    0.603083    0.568652     0.007504
PD3092   PD        0.567716    0.569431    0.567627     0.005394
PD3093   PD        0.567747    0.601763    0.600963     0.005394
PD3094   PD        0.603709    0.569988    0.601796     0.005394
AU3095   AU        0.601807    0.601399    0.566049     0.007504
PD3096   PD        0.634261    0.569010    0.568828     0.005394
PD3097   PD        0.633585    0.604452    0.599148     0.005394
PD3098   PD        0.667628    0.570983    0.600806     0.005394
PD3099   PD        0.667639    0.602095    0.567856     0.005394
AU3100   AU        0.701920    0.571387    0.569187     0.007504
AU3101   AU        0.702477    0.605586    0.601070     0.007504
AU3102   AU        0.734399    0.571254    0.600943     0.007504
AU3103   AU        0.735706    0.606038    0.568201     0.007504
PD3104   PD        0.768967    0.570411    0.567748     0.005394
PD3105   PD        0.771525    0.599083    0.601812     0.005394
AU3106   AU        0.136852    0.638467    0.601718     0.007504
PD3107   PD        0.134927    0.672157    0.564744     0.005394
PD3108   PD        0.173826    0.636932    0.566616     0.005394
AU3109   AU        0.169652    0.669310    0.603274     0.007504
PD3110   PD        0.201880    0.637229    0.602201     0.005394
PD3111   PD        0.206060    0.667207    0.565940     0.005394
PD3112   PD        0.237132    0.637058    0.568593     0.005394
PD3113   PD        0.238879    0.669380    0.599755     0.005394
PD3114   PD        0.272139    0.635914    0.601057     0.005394
AU3115   AU        0.271471    0.669674    0.567959     0.007504
PD3116   PD        0.303241    0.636346    0.571955     0.005394
PD3117   PD        0.302644    0.669018    0.602855     0.005394
PD3118   PD        0.338504    0.636429    0.601685     0.005394
AU3119   AU        0.337759    0.668889    0.570509     0.007504
AU3120   AU        0.369858    0.634856    0.569694     0.007504
AU3121   AU        0.369823    0.669589    0.601732     0.007504
AU3122   AU        0.404595    0.637559    0.603411     0.007504
PD3123   PD        0.402817    0.670326    0.567977     0.005394
AU3124   AU        0.436039    0.637673    0.569054     0.007504
AU3125   AU        0.438165    0.669376    0.601234     0.007504
AU3126   AU        0.469942    0.638955    0.601846     0.007504
AU3127   AU        0.468819    0.669852    0.567468     0.007504
AU3128   AU        0.502139    0.636409    0.568491     0.007504
AU3129   AU        0.502407    0.670476    0.601928     0.007504
AU3130   AU        0.534851    0.636535    0.601642     0.007504
AU3131   AU        0.537793    0.669549    0.570393     0.007504
AU3132   AU        0.568097    0.635297    0.567901     0.007504
AU3133   AU        0.567052    0.671350    0.602794     0.007504
PD3134   PD        0.602574    0.636443    0.600303     0.005394
PD3135   PD        0.599382    0.668930    0.565152     0.005394
PD3136   PD        0.634026    0.637271    0.568960     0.005394
PD3137   PD        0.633065    0.670446    0.599993     0.005394
PD3138   PD        0.665817    0.636210    0.598931     0.005394
PD3139   PD        0.669479    0.668152    0.568116     0.005394
PD3140   PD        0.701388    0.635299    0.566879     0.005394
PD3141   PD        0.700916    0.668130    0.598938     0.005394
PD3142   PD        0.733412    0.638035    0.601893     0.005394
PD3143   PD        0.735258    0.671615    0.567744     0.005394
PD3144   PD        0.158497    0.718656    0.596089     0.005394
PD3145   PD        0.174820    0.704020    0.638561     0.005394
PD3146   PD        0.196401    0.735886    0.566402     0.005394
PD3147   PD        0.237234    0.705884    0.567172     0.005394
AU3148   AU        0.238377    0.733331    0.601773     0.007504
AU3149   AU        0.271894    0.700965    0.602023     0.007504
PD3150   PD        0.273013    0.734431    0.568268     0.005394
PD3151   PD        0.303986    0.702207    0.570177     0.005394
PD3152   PD        0.303422    0.733428    0.602784     0.005394
PD3153   PD        0.336050    0.702059    0.601626     0.005394
PD3154   PD        0.336164    0.734684    0.570054     0.005394
PD3155   PD        0.370848    0.699752    0.569833     0.005394
AU3156   AU        0.370229    0.735695    0.601553     0.007504
PD3157   PD        0.404443    0.702347    0.601451     0.005394
PD3158   PD        0.402202    0.735492    0.566335     0.005394
AU3159   AU        0.436532    0.702319    0.569436     0.007504
AU3160   AU        0.435256    0.734615    0.601449     0.007504
AU3161   AU        0.470211    0.703782    0.603478     0.007504
AU3162   AU        0.467771    0.735824    0.567397     0.007504
PD3163   PD        0.499380    0.703107    0.569219     0.005394
AU3164   AU        0.500697    0.736004    0.600888     0.007504
PD3165   PD        0.533743    0.702950    0.601269     0.005394
PD3166   PD        0.534174    0.735672    0.570079     0.005394
AU3167   AU        0.568404    0.703093    0.566050     0.007504
AU3168   AU        0.567732    0.734617    0.601056     0.007504
AU3169   AU        0.601258    0.704188    0.600637     0.007504
AU3170   AU        0.601291    0.736562    0.568944     0.007504
AU3171   AU        0.633330    0.701100    0.566742     0.007504
AU3172   AU        0.634986    0.736181    0.597853     0.007504
PD3173   PD        0.666697    0.703656    0.600577     0.005394
PD3174   PD        0.671323    0.733279    0.570810     0.005394
PD3175   PD        0.734347    0.740476    0.569593     0.005394
PD3176   PD        0.271099    0.839131    0.603579     0.005394
PD3177   PD        0.306551    0.768171    0.570749     0.005394
PD3178   PD        0.337128    0.766943    0.603170     0.005394
AU3179   AU        0.337869    0.800555    0.568503     0.007504
AU3180   AU        0.370494    0.769845    0.567328     0.007504
AU3181   AU        0.370607    0.800340    0.603130     0.007504
AU3182   AU        0.404937    0.769989    0.600522     0.007504
PD3183   PD        0.403633    0.804649    0.569720     0.005394
PD3184   PD        0.435705    0.768610    0.567151     0.005394
PD3185   PD        0.438078    0.803183    0.601418     0.005394
AU3186   AU        0.468365    0.768632    0.600786     0.007504
AU3187   AU        0.470705    0.801480    0.571067     0.007504
PD3188   PD        0.503827    0.771246    0.570513     0.005394
PD3189   PD        0.520896    0.848455    0.592113     0.005394
AU3190   AU        0.536576    0.769089    0.599669     0.007504
PD3191   PD        0.538362    0.803564    0.565876     0.005394
AU3192   AU        0.569947    0.769944    0.567537     0.007504
PD3193   PD        0.651255    0.794394    0.620635     0.005394
PD3194   PD        0.266890    0.136673    0.633381     0.005394
AU3195   AU        0.301225    0.137116    0.667527     0.007504
AU3196   AU        0.337387    0.139209    0.635079     0.007504
PD3197   PD        0.370938    0.106377    0.633506     0.005394
AU3198   AU        0.369617    0.139689    0.667773     0.007504
PD3199   PD        0.403713    0.072206    0.638149     0.005394
AU3200   AU        0.401418    0.139181    0.633028     0.007504
AU3201   AU        0.435450    0.105043    0.636690     0.007504
PD3202   PD        0.434611    0.136346    0.668915     0.005394
PD3203   PD        0.468930    0.106357    0.667317     0.005394
AU3204   AU        0.468859    0.136544    0.633212     0.007504
AU3205   AU        0.501128    0.105333    0.634717     0.007504
AU3206   AU        0.500972    0.140124    0.667155     0.007504
AU3207   AU        0.532822    0.138880    0.633785     0.007504
AU3208   AU        0.565529    0.139483    0.667435     0.007504
PD3209   PD        0.599331    0.140384    0.635515     0.005394
AU3210   AU        0.203898    0.206537    0.632923     0.007504
AU3211   AU        0.236952    0.175025    0.636241     0.007504
PD3212   PD        0.236147    0.207056    0.666245     0.005394
AU3213   AU        0.268616    0.172154    0.667966     0.007504
AU3214   AU        0.270525    0.204244    0.635721     0.007504
AU3215   AU        0.300899    0.170614    0.635429     0.007504
AU3216   AU        0.301997    0.205449    0.668434     0.007504
AU3217   AU        0.335051    0.171312    0.666255     0.007504
PD3218   PD        0.332941    0.204049    0.634682     0.005394
PD3219   PD        0.368656    0.172109    0.634950     0.005394
PD3220   PD        0.368878    0.204684    0.667130     0.005394
AU3221   AU        0.401136    0.171695    0.666548     0.007504
AU3222   AU        0.401829    0.204266    0.634807     0.007504
PD3223   PD        0.436086    0.170959    0.637366     0.005394
AU3224   AU        0.435909    0.204591    0.668151     0.007504
PD3225   PD        0.470841    0.171407    0.668365     0.005394
AU3226   AU        0.469995    0.204305    0.635596     0.007504
AU3227   AU        0.501297    0.171928    0.634526     0.007504
PD3228   PD        0.501050    0.206093    0.669548     0.005394
AU3229   AU        0.533698    0.171757    0.666416     0.007504
PD3230   PD        0.534333    0.203042    0.634830     0.005394
AU3231   AU        0.567171    0.173038    0.631959     0.007504
AU3232   AU        0.567623    0.204568    0.667699     0.007504
AU3233   AU        0.600074    0.171860    0.669317     0.007504
PD3234   PD        0.600607    0.202814    0.633446     0.005394
AU3235   AU        0.635991    0.170284    0.633990     0.007504
PD3236   PD        0.634130    0.204544    0.668525     0.005394
AU3237   AU        0.668824    0.203845    0.635073     0.007504
AU3238   AU        0.138126    0.269873    0.633583     0.007504
AU3239   AU        0.170010    0.235941    0.632970     0.007504
PD3240   PD        0.168123    0.270611    0.666816     0.005394
PD3241   PD        0.204281    0.235940    0.666816     0.005394
AU3242   AU        0.203040    0.270431    0.635602     0.007504
AU3243   AU        0.236961    0.238154    0.635402     0.007504
PD3244   PD        0.235954    0.269196    0.666432     0.005394
AU3245   AU        0.268536    0.239624    0.669193     0.007504
AU3246   AU        0.270199    0.270696    0.636011     0.007504
PD3247   PD        0.303167    0.236416    0.636776     0.005394
PD3248   PD        0.304434    0.272465    0.668243     0.005394
AU3249   AU        0.334628    0.237741    0.667132     0.007504
AU3250   AU        0.334498    0.271785    0.634461     0.007504
AU3251   AU        0.368599    0.237087    0.635332     0.007504
AU3252   AU        0.368222    0.268723    0.668755     0.007504
AU3253   AU        0.401128    0.236914    0.668029     0.007504
PD3254   PD        0.400352    0.269616    0.635416     0.005394
PD3255   PD        0.433663    0.236429    0.637231     0.005394
AU3256   AU        0.436071    0.268868    0.668211     0.007504
PD3257   PD        0.470467    0.238184    0.667305     0.005394
AU3258   AU        0.468099    0.269369    0.634502     0.007504
AU3259   AU        0.502792    0.238179    0.636009     0.007504
PD3260   PD        0.501996    0.271362    0.667313     0.005394
AU3261   AU        0.533611    0.236560    0.670263     0.007504
AU3262   AU        0.536015    0.269408    0.633023     0.007504
AU3263   AU        0.566370    0.236701    0.636204     0.007504
AU3264   AU        0.567260    0.271238    0.667983     0.007504
PD3265   PD        0.601791    0.233550    0.667554     0.005394
AU3266   AU        0.600343    0.271914    0.635671     0.007504
AU3267   AU        0.633748    0.236052    0.632932     0.007504
PD3268   PD        0.632524    0.268293    0.668284     0.005394
PD3269   PD        0.663506    0.238767    0.668143     0.005394
PD3270   PD        0.664275    0.271978    0.636813     0.005394
PD3271   PD        0.697116    0.239019    0.635764     0.005394
AU3272   AU        0.699368    0.271937    0.669887     0.007504
PD3273   PD        0.728549    0.271345    0.636057     0.005394
PD3274   PD        0.137976    0.303361    0.667364     0.005394
AU3275   AU        0.139344    0.338876    0.635221     0.007504
AU3276   AU        0.170530    0.303370    0.634697     0.007504
AU3277   AU        0.171582    0.336248    0.665456     0.007504
PD3278   PD        0.205209    0.304325    0.668222     0.005394
AU3279   AU        0.203783    0.338391    0.631816     0.007504
PD3280   PD        0.235355    0.303790    0.633504     0.005394
PD3281   PD        0.236928    0.336649    0.664194     0.005394
PD3282   PD        0.269953    0.303084    0.668180     0.005394
AU3283   AU        0.269660    0.336586    0.632628     0.007504
AU3284   AU        0.303625    0.306133    0.635299     0.007504
PD3285   PD        0.301240    0.335924    0.668310     0.005394
AU3286   AU        0.335915    0.302882    0.668442     0.007504
PD3287   PD        0.337750    0.335855    0.633602     0.005394
AU3288   AU        0.369623    0.302105    0.635307     0.007504
PD3289   PD        0.368094    0.338063    0.667455     0.005394
AU3290   AU        0.401372    0.301433    0.668075     0.007504
AU3291   AU        0.402070    0.335973    0.635326     0.007504
PD3292   PD        0.435701    0.304137    0.635371     0.005394
PD3293   PD        0.437357    0.336566    0.667128     0.005394
AU3294   AU        0.468230    0.304362    0.666323     0.007504
PD3295   PD        0.468260    0.335968    0.635251     0.005394
AU3296   AU        0.503935    0.304633    0.634389     0.007504
PD3297   PD        0.501195    0.336185    0.668264     0.005394
PD3298   PD        0.535403    0.306346    0.667181     0.005394
AU3299   AU        0.536050    0.338538    0.633959     0.007504
AU3300   AU        0.567265    0.303452    0.635609     0.007504
AU3301   AU        0.568900    0.338795    0.667647     0.007504
AU3302   AU        0.600835    0.303355    0.667547     0.007504
AU3303   AU        0.600199    0.336877    0.634508     0.007504
AU3304   AU        0.634103    0.302725    0.634645     0.007504
AU3305   AU        0.632997    0.336707    0.668893     0.007504
PD3306   PD        0.668689    0.303831    0.667691     0.005394
PD3307   PD        0.667457    0.339821    0.634102     0.005394
AU3308   AU        0.699196    0.303730    0.634418     0.007504
AU3309   AU        0.700238    0.337134    0.667240     0.007504
AU3310   AU        0.730760    0.302828    0.669908     0.007504
PD3311   PD        0.733393    0.337649    0.638368     0.005394
AU3312   AU        0.105015    0.368170    0.637175     0.007504
PD3313   PD        0.103613    0.401780    0.668719     0.005394
AU3314   AU        0.136673    0.369849    0.667445     0.007504
AU3315   AU        0.137768    0.403485    0.636291     0.007504
AU3316   AU        0.171098    0.371803    0.634701     0.007504
AU3317   AU        0.170722    0.403565    0.668699     0.007504
AU3318   AU        0.201445    0.371527    0.665889     0.007504
PD3319   PD        0.201545    0.405925    0.635222     0.005394
PD3320   PD        0.236212    0.371299    0.633992     0.005394
AU3321   AU        0.234789    0.403011    0.669309     0.007504
PD3322   PD        0.271691    0.372071    0.669467     0.005394
PD3323   PD        0.268062    0.402235    0.635854     0.005394
PD3324   PD        0.304168    0.365494    0.634439     0.005394
PD3325   PD        0.303268    0.402546    0.668973     0.005394
AU3326   AU        0.336660    0.370095    0.666564     0.007504
PD3327   PD        0.337543    0.404900    0.635627     0.005394
AU3328   AU        0.371391    0.370064    0.635545     0.007504
PD3329   PD        0.370150    0.403997    0.667609     0.005394
PD3330   PD        0.403492    0.370888    0.665619     0.005394
PD3331   PD        0.402501    0.402700    0.635113     0.005394
AU3332   AU        0.436275    0.371581    0.633874     0.007504
AU3333   AU        0.437152    0.404484    0.668775     0.007504
AU3334   AU        0.469579    0.370845    0.666673     0.007504
AU3335   AU        0.469999    0.404174    0.634409     0.007504
PD3336   PD        0.504273    0.370532    0.634147     0.005394
AU3337   AU        0.503090    0.404383    0.668955     0.007504
AU3338   AU        0.532665    0.371589    0.667785     0.007504
AU3339   AU        0.534104    0.404695    0.633578     0.007504
AU3340   AU        0.569855    0.369116    0.635672     0.007504
PD3341   PD        0.566964    0.400582    0.668048     0.005394
PD3342   PD        0.600683    0.369634    0.668577     0.005394
PD3343   PD        0.601472    0.402332    0.633893     0.005394
PD3344   PD        0.632484    0.368294    0.635305     0.005394
PD3345   PD        0.632513    0.403105    0.666120     0.005394
PD3346   PD        0.668515    0.371007    0.669684     0.005394
AU3347   AU        0.669098    0.404442    0.636703     0.007504
PD3348   PD        0.700437    0.370935    0.631708     0.005394
PD3349   PD        0.701632    0.403692    0.666353     0.005394
PD3350   PD        0.733091    0.373446    0.664674     0.005394
AU3351   AU        0.736894    0.404692    0.634503     0.007504
PD3352   PD        0.767699    0.371469    0.635159     0.005394
AU3353   AU        0.764591    0.406932    0.669829     0.007504
PD3354   PD        0.105931    0.435628    0.631901     0.005394
PD3355   PD        0.103798    0.472894    0.671462     0.005394
PD3356   PD        0.136882    0.437272    0.668398     0.005394
PD3357   PD        0.137820    0.467330    0.637194     0.005394
AU3358   AU        0.168604    0.436859    0.636015     0.007504
PD3359   PD        0.170222    0.469607    0.669243     0.005394
AU3360   AU        0.202680    0.436910    0.667936     0.007504
AU3361   AU        0.203801    0.471826    0.635686     0.007504
AU3362   AU        0.237179    0.437196    0.637114     0.007504
PD3363   PD        0.238053    0.468400    0.668742     0.005394
AU3364   AU        0.269991    0.436040    0.668576     0.007504
PD3365   PD        0.268711    0.471894    0.634661     0.005394
PD3366   PD        0.302454    0.437717    0.635523     0.005394
PD3367   PD        0.300797    0.469028    0.667400     0.005394
PD3368   PD        0.336562    0.438480    0.667856     0.005394
AU3369   AU        0.337371    0.469890    0.635955     0.007504
AU3370   AU        0.371042    0.438024    0.634706     0.007504
AU3371   AU        0.369750    0.471376    0.667546     0.007504
AU3372   AU        0.403468    0.436614    0.669695     0.007504
AU3373   AU        0.404460    0.470501    0.634125     0.007504
PD3374   PD        0.438539    0.435836    0.634466     0.005394
AU3375   AU        0.435658    0.470769    0.666205     0.007504
AU3376   AU        0.470625    0.438324    0.667361     0.007504
AU3377   AU        0.469247    0.470605    0.633750     0.007504
AU3378   AU        0.501012    0.436363    0.633662     0.007504
AU3379   AU        0.502922    0.470606    0.667556     0.007504
AU3380   AU        0.535702    0.437405    0.670082     0.007504
AU3381   AU        0.534615    0.469400    0.633625     0.007504
PD3382   PD        0.566956    0.436466    0.636007     0.005394
AU3383   AU        0.570493    0.469399    0.667904     0.007504
PD3384   PD        0.600147    0.436321    0.667670     0.005394
AU3385   AU        0.602579    0.471267    0.633743     0.007504
AU3386   AU        0.636091    0.436343    0.632536     0.007504
PD3387   PD        0.636815    0.469654    0.665814     0.005394
PD3388   PD        0.668721    0.437878    0.666335     0.005394
AU3389   AU        0.667337    0.470539    0.633498     0.007504
PD3390   PD        0.702433    0.438031    0.633187     0.005394
AU3391   AU        0.699636    0.470441    0.667222     0.007504
PD3392   PD        0.734064    0.437618    0.668754     0.005394
AU3393   AU        0.734563    0.470062    0.636549     0.007504
PD3394   PD        0.770805    0.437596    0.634294     0.005394
PD3395   PD        0.804770    0.478289    0.700132     0.005394
AU3396   AU        0.102253    0.503510    0.634808     0.007504
AU3397   AU        0.136911    0.503030    0.666367     0.007504
AU3398   AU        0.134752    0.536866    0.635164     0.007504
PD3399   PD        0.167921    0.502720    0.635079     0.005394
PD3400   PD        0.168365    0.536368    0.668800     0.005394
PD3401   PD        0.201395    0.502738    0.666481     0.005394
PD3402   PD        0.202464    0.538662    0.636096     0.005394
AU3403   AU        0.236875    0.506183    0.636129     0.007504
AU3404   AU        0.235562    0.536427    0.667090     0.007504
PD3405   PD        0.270583    0.504684    0.670336     0.005394
AU3406   AU        0.272459    0.537097    0.635839     0.007504
PD3407   PD        0.305138    0.501154    0.634892     0.005394
PD3408   PD        0.305544    0.535755    0.670440     0.005394
PD3409   PD        0.336188    0.502355    0.667370     0.005394
PD3410   PD        0.334232    0.537722    0.633316     0.005394
PD3411   PD        0.368170    0.504104    0.636010     0.005394
AU3412   AU        0.370211    0.538020    0.665611     0.007504
PD3413   PD        0.402418    0.506201    0.665766     0.005394
PD3414   PD        0.404013    0.539886    0.633749     0.005394
AU3415   AU        0.436862    0.505434    0.635589     0.007504
AU3416   AU        0.434868    0.538523    0.668610     0.007504
PD3417   PD        0.469392    0.502635    0.667767     0.005394
AU3418   AU        0.469887    0.538469    0.635740     0.007504
AU3419   AU        0.501493    0.503990    0.635637     0.007504
AU3420   AU        0.502192    0.533653    0.669363     0.007504
PD3421   PD        0.535679    0.501628    0.667608     0.005394
PD3422   PD        0.536183    0.534321    0.635382     0.005394
AU3423   AU        0.569053    0.502442    0.634477     0.007504
AU3424   AU        0.568242    0.537393    0.666678     0.007504
AU3425   AU        0.600524    0.504535    0.669038     0.007504
PD3426   PD        0.604711    0.538140    0.634115     0.005394
AU3427   AU        0.634401    0.503862    0.632332     0.007504
PD3428   PD        0.633586    0.534722    0.670497     0.005394
AU3429   AU        0.668670    0.504075    0.666843     0.007504
PD3430   PD        0.668678    0.538675    0.635930     0.005394
PD3431   PD        0.700109    0.504950    0.632911     0.005394
PD3432   PD        0.701034    0.538522    0.667939     0.005394
PD3433   PD        0.736276    0.506613    0.666833     0.005394
AU3434   AU        0.731087    0.536493    0.632299     0.007504
AU3435   AU        0.766614    0.502894    0.634139     0.007504
PD3436   PD        0.137079    0.573599    0.666805     0.005394
PD3437   PD        0.137602    0.607225    0.634086     0.005394
AU3438   AU        0.169588    0.571767    0.634065     0.007504
AU3439   AU        0.170054    0.604081    0.668685     0.007504
PD3440   PD        0.203068    0.571921    0.668909     0.005394
AU3441   AU        0.203805    0.603165    0.634428     0.007504
AU3442   AU        0.236437    0.570332    0.634432     0.007504
AU3443   AU        0.237968    0.605639    0.666232     0.007504
PD3444   PD        0.271859    0.570422    0.667592     0.005394
AU3445   AU        0.269798    0.605127    0.634409     0.007504
AU3446   AU        0.304909    0.572154    0.634908     0.007504
AU3447   AU        0.302322    0.604079    0.667086     0.007504
PD3448   PD        0.336582    0.571160    0.667254     0.005394
AU3449   AU        0.336340    0.604436    0.634439     0.007504
PD3450   PD        0.370030    0.570909    0.635835     0.005394
AU3451   AU        0.371197    0.602892    0.667793     0.007504
AU3452   AU        0.402030    0.569896    0.668159     0.007504
AU3453   AU        0.404069    0.604309    0.635724     0.007504
PD3454   PD        0.436372    0.570663    0.633550     0.005394
AU3455   AU        0.435851    0.603710    0.667191     0.007504
AU3456   AU        0.468922    0.570305    0.666812     0.007504
AU3457   AU        0.467996    0.602080    0.634694     0.007504
AU3458   AU        0.501418    0.570983    0.634933     0.007504
AU3459   AU        0.501545    0.602355    0.668342     0.007504
PD3460   PD        0.534133    0.568825    0.666434     0.005394
AU3461   AU        0.535195    0.604596    0.637114     0.007504
PD3462   PD        0.568108    0.569019    0.634943     0.005394
AU3463   AU        0.567298    0.602592    0.668209     0.007504
PD3464   PD        0.601488    0.570146    0.667311     0.005394
PD3465   PD        0.599123    0.604053    0.633420     0.005394
PD3466   PD        0.633342    0.568600    0.635847     0.005394
AU3467   AU        0.632286    0.602455    0.664637     0.007504
PD3468   PD        0.667388    0.572520    0.668204     0.005394
AU3469   AU        0.667676    0.604164    0.634356     0.007504
PD3470   PD        0.700430    0.570687    0.631103     0.005394
PD3471   PD        0.701436    0.606512    0.669755     0.005394
PD3472   PD        0.735402    0.567437    0.669009     0.005394
PD3473   PD        0.769619    0.610506    0.666299     0.005394
AU3474   AU        0.169693    0.636540    0.635771     0.007504
AU3475   AU        0.203538    0.634821    0.666699     0.007504
AU3476   AU        0.203694    0.668970    0.634438     0.007504
AU3477   AU        0.236312    0.637666    0.633349     0.007504
AU3478   AU        0.237673    0.668213    0.669526     0.007504
AU3479   AU        0.270146    0.636988    0.666704     0.007504
AU3480   AU        0.270163    0.669503    0.636071     0.007504
AU3481   AU        0.305495    0.635910    0.634737     0.007504
AU3482   AU        0.304009    0.668722    0.668221     0.007504
AU3483   AU        0.337545    0.636593    0.669689     0.007504
AU3484   AU        0.337839    0.669684    0.635030     0.007504
AU3485   AU        0.369826    0.634828    0.635430     0.007504
AU3486   AU        0.371237    0.669648    0.667855     0.007504
AU3487   AU        0.403047    0.636817    0.668251     0.007504
AU3488   AU        0.402859    0.668201    0.633414     0.007504
PD3489   PD        0.436516    0.636869    0.633679     0.005394
AU3490   AU        0.436809    0.670363    0.667677     0.007504
AU3491   AU        0.471218    0.635404    0.670136     0.007504
AU3492   AU        0.470592    0.672112    0.635350     0.007504
AU3493   AU        0.502257    0.636729    0.636846     0.007504
PD3494   PD        0.503228    0.669873    0.668098     0.005394
AU3495   AU        0.534470    0.635325    0.669110     0.007504
PD3496   PD        0.535080    0.667542    0.635350     0.005394
AU3497   AU        0.569190    0.638549    0.634456     0.007504
PD3498   PD        0.567041    0.668649    0.668084     0.005394
AU3499   AU        0.600735    0.639579    0.669592     0.007504
PD3500   PD        0.601466    0.670323    0.634205     0.005394
AU3501   AU        0.634837    0.638370    0.631427     0.007504
PD3502   PD        0.665461    0.668267    0.696601     0.005394
PD3503   PD        0.669184    0.639758    0.666320     0.005394
AU3504   AU        0.667524    0.671750    0.633055     0.007504
PD3505   PD        0.702394    0.640684    0.634214     0.005394
AU3506   AU        0.235631    0.700812    0.633868     0.007504
PD3507   PD        0.269919    0.703377    0.667333     0.005394
PD3508   PD        0.268110    0.733292    0.635617     0.005394
AU3509   AU        0.302205    0.701720    0.635723     0.007504
AU3510   AU        0.305483    0.733597    0.669623     0.007504
AU3511   AU        0.336920    0.701565    0.667903     0.007504
AU3512   AU        0.338200    0.734546    0.634540     0.007504
AU3513   AU        0.368772    0.700808    0.635305     0.007504
AU3514   AU        0.371211    0.736311    0.667614     0.007504
AU3515   AU        0.405077    0.700977    0.668459     0.007504
PD3516   PD        0.403564    0.736043    0.635298     0.005394
PD3517   PD        0.435913    0.704189    0.634065     0.005394
PD3518   PD        0.435721    0.733820    0.666043     0.005394
PD3519   PD        0.469935    0.704798    0.670261     0.005394
AU3520   AU        0.470733    0.734602    0.635905     0.007504
AU3521   AU        0.504430    0.703689    0.636164     0.007504
PD3522   PD        0.500208    0.738635    0.667641     0.005394
PD3523   PD        0.535245    0.701597    0.668597     0.005394
AU3524   AU        0.536621    0.736903    0.634884     0.007504
AU3525   AU        0.568454    0.701565    0.635463     0.007504
PD3526   PD        0.567748    0.736938    0.667523     0.005394
PD3527   PD        0.602169    0.701658    0.668308     0.005394
AU3528   AU        0.600046    0.738521    0.633757     0.007504
AU3529   AU        0.632772    0.704940    0.634101     0.007504
AU3530   AU        0.372132    0.766726    0.635843     0.007504
PD3531   PD        0.435565    0.770124    0.700162     0.005394
AU3532   AU        0.436583    0.767287    0.632694     0.007504
PD3533   PD        0.472105    0.765861    0.667568     0.005394
AU3534   AU        0.501474    0.769354    0.632825     0.007504
PD3535   PD        0.400957    0.143268    0.700772     0.005394
PD3536   PD        0.470149    0.139520    0.701041     0.005394
AU3537   AU        0.268731    0.204389    0.700341     0.007504
AU3538   AU        0.303055    0.171642    0.699324     0.007504
PD3539   PD        0.302806    0.204720    0.733283     0.005394
PD3540   PD        0.333081    0.203116    0.702108     0.005394
PD3541   PD        0.369111    0.173845    0.701768     0.005394
PD3542   PD        0.367476    0.205354    0.734538     0.005394
AU3543   AU        0.402471    0.173189    0.734329     0.007504
PD3544   PD        0.402798    0.205789    0.702303     0.005394
PD3545   PD        0.435152    0.170598    0.700429     0.005394
AU3546   AU        0.436098    0.205296    0.731761     0.007504
PD3547   PD        0.470263    0.170913    0.736041     0.005394
AU3548   AU        0.470281    0.204867    0.700847     0.007504
AU3549   AU        0.504270    0.170477    0.701628     0.007504
AU3550   AU        0.500952    0.204867    0.733737     0.007504
PD3551   PD        0.534210    0.203034    0.700549     0.005394
PD3552   PD        0.565211    0.170336    0.699278     0.005394
PD3553   PD        0.568477    0.205981    0.737223     0.005394
AU3554   AU        0.598747    0.202987    0.704003     0.007504
AU3555   AU        0.201778    0.272129    0.698362     0.007504
PD3556   PD        0.238861    0.238715    0.704258     0.005394
PD3557   PD        0.234373    0.268970    0.733454     0.005394
AU3558   AU        0.271840    0.238782    0.735264     0.007504
AU3559   AU        0.269911    0.271623    0.700064     0.007504
AU3560   AU        0.301098    0.238127    0.698961     0.007504
AU3561   AU        0.302308    0.273178    0.732449     0.007504
AU3562   AU        0.334185    0.236108    0.734121     0.007504
AU3563   AU        0.336773    0.268282    0.699938     0.007504
AU3564   AU        0.367933    0.237224    0.701456     0.007504
AU3565   AU        0.369083    0.270793    0.732890     0.007504
AU3566   AU        0.401220    0.237354    0.734055     0.007504
AU3567   AU        0.400690    0.270344    0.700190     0.007504
AU3568   AU        0.435319    0.237267    0.699304     0.007504
PD3569   PD        0.435698    0.270179    0.732023     0.005394
AU3570   AU        0.468099    0.239072    0.734636     0.007504
AU3571   AU        0.466776    0.272298    0.700481     0.007504
AU3572   AU        0.502012    0.238830    0.702133     0.007504
AU3573   AU        0.502398    0.270776    0.735506     0.007504
PD3574   PD        0.537429    0.235682    0.732273     0.005394
AU3575   AU        0.536180    0.272472    0.700181     0.007504
AU3576   AU        0.568162    0.237938    0.700673     0.007504
AU3577   AU        0.566758    0.270166    0.734866     0.007504
AU3578   AU        0.598388    0.238478    0.736267     0.007504
AU3579   AU        0.600148    0.270677    0.700971     0.007504
PD3580   PD        0.632459    0.236423    0.699590     0.005394
AU3581   AU        0.631850    0.271630    0.736097     0.007504
AU3582   AU        0.664777    0.270481    0.701129     0.007504
PD3583   PD        0.168250    0.308322    0.700042     0.005394
PD3584   PD        0.205716    0.305726    0.733664     0.005394
PD3585   PD        0.204365    0.337702    0.697814     0.005394
AU3586   AU        0.236102    0.302905    0.698888     0.007504
PD3587   PD        0.170852    0.339051    0.803466     0.005394
AU3588   AU        0.268545    0.303216    0.734033     0.007504
AU3589   AU        0.268939    0.337316    0.701949     0.007504
AU3590   AU        0.302750    0.302692    0.701324     0.007504
AU3591   AU        0.301994    0.335737    0.734676     0.007504
AU3592   AU        0.336770    0.305033    0.734472     0.007504
AU3593   AU        0.334528    0.337070    0.699612     0.007504
AU3594   AU        0.368090    0.304922    0.699728     0.007504
AU3595   AU        0.368252    0.336909    0.733455     0.007504
PD3596   PD        0.401334    0.303112    0.733845     0.005394
PD3597   PD        0.402623    0.336263    0.701002     0.005394
PD3598   PD        0.434500    0.303033    0.699351     0.005394
PD3599   PD        0.434757    0.338109    0.734744     0.005394
AU3600   AU        0.469298    0.304162    0.733560     0.007504
PD3601   PD        0.470309    0.337301    0.698312     0.005394
AU3602   AU        0.501817    0.302561    0.701091     0.007504
AU3603   AU        0.504112    0.339102    0.732776     0.007504
AU3604   AU        0.534739    0.303736    0.735362     0.007504
AU3605   AU        0.535920    0.337257    0.698501     0.007504
AU3606   AU        0.567646    0.304069    0.701738     0.007504
AU3607   AU        0.566790    0.337599    0.733072     0.007504
AU3608   AU        0.600249    0.302416    0.733616     0.007504
AU3609   AU        0.598771    0.335953    0.701004     0.007504
AU3610   AU        0.632091    0.303175    0.702084     0.007504
AU3611   AU        0.632414    0.336774    0.732461     0.007504
PD3612   PD        0.667684    0.306900    0.734130     0.005394
AU3613   AU        0.667410    0.336748    0.700573     0.007504
PD3614   PD        0.699775    0.307889    0.702868     0.005394
PD3615   PD        0.136918    0.401358    0.699881     0.005394
AU3616   AU        0.167896    0.369704    0.700557     0.007504
PD3617   PD        0.170367    0.405179    0.734313     0.005394
PD3618   PD        0.202026    0.371437    0.731856     0.005394
AU3619   AU        0.202747    0.403194    0.700523     0.007504
PD3620   PD        0.233923    0.370140    0.700524     0.005394
AU3621   AU        0.236108    0.402673    0.733455     0.007504
PD3622   PD        0.272594    0.373076    0.731394     0.005394
AU3623   AU        0.267259    0.406436    0.701996     0.007504
AU3624   AU        0.303313    0.371135    0.701520     0.007504
PD3625   PD        0.302052    0.402981    0.733222     0.005394
PD3626   PD        0.336814    0.371691    0.731309     0.005394
PD3627   PD        0.337770    0.403456    0.700768     0.005394
AU3628   AU        0.369114    0.370843    0.699674     0.007504
PD3629   PD        0.370529    0.405052    0.734505     0.005394
PD3630   PD        0.402168    0.370563    0.735853     0.005394
AU3631   AU        0.404837    0.402240    0.702376     0.007504
AU3632   AU        0.436407    0.369281    0.701132     0.007504
AU3633   AU        0.437501    0.402533    0.735968     0.007504
AU3634   AU        0.468846    0.369698    0.733334     0.007504
PD3635   PD        0.468076    0.402772    0.701571     0.005394
PD3636   PD        0.500209    0.372544    0.701984     0.005394
AU3637   AU        0.502754    0.403616    0.733845     0.007504
PD3638   PD        0.535239    0.370713    0.734765     0.005394
PD3639   PD        0.533482    0.403781    0.701635     0.005394
AU3640   AU        0.568057    0.371612    0.700915     0.007504
AU3641   AU        0.568526    0.403417    0.735400     0.007504
AU3642   AU        0.600462    0.371160    0.734571     0.007504
AU3643   AU        0.600373    0.403690    0.700833     0.007504
AU3644   AU        0.633131    0.370138    0.702111     0.007504
PD3645   PD        0.633817    0.403194    0.733320     0.005394
AU3646   AU        0.665596    0.369259    0.733189     0.007504
AU3647   AU        0.668365    0.403580    0.700035     0.007504
PD3648   PD        0.698775    0.369758    0.695822     0.005394
PD3649   PD        0.698065    0.401623    0.734951     0.005394
PD3650   PD        0.731184    0.401936    0.702938     0.005394
PD3651   PD        0.138820    0.471066    0.701082     0.005394
AU3652   AU        0.168605    0.435124    0.700184     0.007504
PD3653   PD        0.174141    0.469229    0.732785     0.005394
PD3654   PD        0.200481    0.438803    0.733205     0.005394
AU3655   AU        0.204275    0.471466    0.699106     0.007504
PD3656   PD        0.236829    0.438583    0.702371     0.005394
AU3657   AU        0.236044    0.472979    0.733208     0.007504
AU3658   AU        0.270615    0.436960    0.734868     0.007504
PD3659   PD        0.271224    0.468952    0.700458     0.005394
PD3660   PD        0.303579    0.438607    0.699598     0.005394
AU3661   AU        0.303980    0.468002    0.733266     0.007504
AU3662   AU        0.337353    0.435940    0.732211     0.007504
PD3663   PD        0.333862    0.471512    0.701341     0.005394
PD3664   PD        0.371821    0.434151    0.700161     0.005394
PD3665   PD        0.368819    0.469641    0.732456     0.005394
AU3666   AU        0.403660    0.439231    0.734440     0.007504
PD3667   PD        0.403033    0.472183    0.700007     0.005394
PD3668   PD        0.437453    0.436538    0.701393     0.005394
AU3669   AU        0.436350    0.470645    0.733511     0.007504
AU3670   AU        0.468934    0.436181    0.734553     0.007504
PD3671   PD        0.468444    0.470607    0.701468     0.005394
AU3672   AU        0.501574    0.436143    0.701924     0.007504
AU3673   AU        0.502000    0.467505    0.734956     0.007504
PD3674   PD        0.535184    0.434548    0.734394     0.005394
AU3675   AU        0.535328    0.469311    0.703398     0.007504
AU3676   AU        0.569604    0.437025    0.700087     0.007504
AU3677   AU        0.569401    0.470054    0.734544     0.007504
AU3678   AU        0.602937    0.437222    0.733321     0.007504
AU3679   AU        0.603958    0.469515    0.699831     0.007504
PD3680   PD        0.636042    0.436668    0.698755     0.005394
PD3681   PD        0.634104    0.470281    0.734958     0.005394
AU3682   AU        0.666105    0.436360    0.733427     0.007504
AU3683   AU        0.668132    0.471900    0.703497     0.007504
AU3684   AU        0.700346    0.437578    0.702755     0.007504
PD3685   PD        0.701064    0.471085    0.732180     0.005394
PD3686   PD        0.733925    0.472000    0.697300     0.005394
PD3687   PD        0.167321    0.505858    0.700816     0.005394
PD3688   PD        0.203543    0.506142    0.729758     0.005394
PD3689   PD        0.202424    0.540495    0.701810     0.005394
PD3690   PD        0.238665    0.501885    0.698577     0.005394
PD3691   PD        0.238699    0.538686    0.733693     0.005394
AU3692   AU        0.271188    0.503129    0.731994     0.007504
PD3693   PD        0.270640    0.539320    0.697836     0.005394
PD3694   PD        0.303569    0.505479    0.703409     0.005394
AU3695   AU        0.302896    0.538587    0.734492     0.007504
PD3696   PD        0.339779    0.503671    0.732428     0.005394
PD3697   PD        0.337007    0.539540    0.700126     0.005394
AU3698   AU        0.371189    0.504830    0.699689     0.007504
PD3699   PD        0.369342    0.536866    0.735396     0.005394
PD3700   PD        0.402171    0.503103    0.735176     0.005394
AU3701   AU        0.402462    0.536802    0.702297     0.007504
AU3702   AU        0.433467    0.504156    0.701046     0.007504
AU3703   AU        0.434427    0.536817    0.735574     0.007504
PD3704   PD        0.469588    0.501479    0.736818     0.005394
PD3705   PD        0.467093    0.537890    0.702271     0.005394
PD3706   PD        0.502599    0.503225    0.701786     0.005394
PD3707   PD        0.500072    0.535732    0.732359     0.005394
PD3708   PD        0.535399    0.503062    0.734124     0.005394
AU3709   AU        0.535610    0.538386    0.701702     0.007504
AU3710   AU        0.567163    0.504518    0.702330     0.007504
AU3711   AU        0.568578    0.536523    0.736187     0.007504
AU3712   AU        0.601910    0.501217    0.734518     0.007504
AU3713   AU        0.600652    0.536879    0.700041     0.007504
AU3714   AU        0.635198    0.502702    0.701248     0.007504
PD3715   PD        0.632864    0.533247    0.733082     0.005394
PD3716   PD        0.665608    0.501675    0.735621     0.005394
PD3717   PD        0.667368    0.534952    0.702440     0.005394
AU3718   AU        0.701664    0.504455    0.701512     0.007504
PD3719   PD        0.164210    0.622228    0.728771     0.005394
PD3720   PD        0.203378    0.571252    0.732568     0.005394
AU3721   AU        0.205160    0.605589    0.701179     0.007504
AU3722   AU        0.237525    0.571318    0.701587     0.007504
PD3723   PD        0.234884    0.605015    0.736173     0.005394
PD3724   PD        0.269578    0.571165    0.734148     0.005394
AU3725   AU        0.271286    0.603448    0.700923     0.007504
PD3726   PD        0.303533    0.572054    0.699139     0.005394
PD3727   PD        0.304929    0.605086    0.737089     0.005394
AU3728   AU        0.337853    0.570385    0.734869     0.007504
AU3729   AU        0.337646    0.603424    0.701118     0.007504
AU3730   AU        0.370365    0.570971    0.701163     0.007504
PD3731   PD        0.371409    0.601542    0.734945     0.005394
AU3732   AU        0.401355    0.569709    0.736112     0.007504
AU3733   AU        0.403357    0.604511    0.703025     0.007504
AU3734   AU        0.435126    0.571507    0.701905     0.007504
PD3735   PD        0.436324    0.603447    0.734405     0.005394
AU3736   AU        0.469299    0.568379    0.735038     0.007504
AU3737   AU        0.467935    0.603246    0.701338     0.007504
AU3738   AU        0.500732    0.570156    0.699798     0.007504
PD3739   PD        0.500686    0.604229    0.733643     0.005394
PD3740   PD        0.534810    0.572329    0.733566     0.005394
AU3741   AU        0.534326    0.602314    0.702671     0.007504
AU3742   AU        0.568087    0.569606    0.700592     0.007504
AU3743   AU        0.568611    0.603545    0.732541     0.007504
PD3744   PD        0.600796    0.570851    0.735391     0.005394
PD3745   PD        0.603922    0.603170    0.699039     0.005394
PD3746   PD        0.634715    0.569867    0.701399     0.005394
PD3747   PD        0.637585    0.602285    0.736387     0.005394
PD3748   PD        0.661961    0.571547    0.735009     0.005394
AU3749   AU        0.666422    0.607017    0.702386     0.007504
PD3750   PD        0.699620    0.574400    0.700355     0.005394
AU3751   AU        0.238367    0.636999    0.700581     0.007504
AU3752   AU        0.269190    0.635042    0.734754     0.007504
PD3753   PD        0.272689    0.670304    0.702268     0.005394
AU3754   AU        0.302689    0.634395    0.701288     0.007504
PD3755   PD        0.304515    0.669415    0.733606     0.005394
AU3756   AU        0.337643    0.636629    0.731919     0.007504
PD3757   PD        0.337162    0.668350    0.700051     0.005394
PD3758   PD        0.370019    0.636277    0.699952     0.005394
PD3759   PD        0.372154    0.668127    0.734431     0.005394
AU3760   AU        0.404709    0.636917    0.734429     0.007504
AU3761   AU        0.403313    0.667260    0.703073     0.007504
AU3762   AU        0.436778    0.636055    0.699543     0.007504
PD3763   PD        0.438951    0.670077    0.734285     0.005394
PD3764   PD        0.468110    0.635661    0.734626     0.005394
AU3765   AU        0.470727    0.671351    0.702427     0.007504
PD3766   PD        0.501725    0.636230    0.702480     0.005394
AU3767   AU        0.503492    0.671020    0.734917     0.007504
PD3768   PD        0.535095    0.633887    0.737343     0.005394
PD3769   PD        0.533389    0.666807    0.703388     0.005394
AU3770   AU        0.567222    0.635364    0.700097     0.007504
PD3771   PD        0.567556    0.665992    0.735324     0.005394
PD3772   PD        0.601139    0.633321    0.736422     0.005394
PD3773   PD        0.635440    0.700538    0.703878     0.005394
AU3774   AU        0.632713    0.634370    0.701357     0.007504
AU3775   AU        0.305162    0.701130    0.701046     0.007504
AU3776   AU        0.372991    0.700852    0.700901     0.007504
AU3777   AU        0.404787    0.701966    0.732779     0.007504
AU3778   AU        0.404592    0.735234    0.701457     0.007504
AU3779   AU        0.437393    0.703307    0.703036     0.007504
PD3780   PD        0.468839    0.702996    0.737645     0.005394
PD3781   PD        0.471597    0.735722    0.702806     0.005394
PD3782   PD        0.504896    0.701957    0.701185     0.005394
PD3783   PD        0.569884    0.700338    0.701213     0.005394
PD3784   PD        0.400278    0.206669    0.767328     0.005394
PD3785   PD        0.501195    0.171615    0.765516     0.005394
PD3786   PD        0.269447    0.271092    0.765776     0.005394
AU3787   AU        0.334847    0.270363    0.765662     0.007504
AU3788   AU        0.367401    0.238245    0.769047     0.007504
PD3789   PD        0.373811    0.269618    0.800638     0.005394
PD3790   PD        0.402626    0.268573    0.766321     0.005394
PD3791   PD        0.433841    0.239073    0.768377     0.005394
PD3792   PD        0.438954    0.245191    0.838387     0.005394
PD3793   PD        0.469951    0.269010    0.767226     0.005394
PD3794   PD        0.502512    0.237172    0.765539     0.005394
PD3795   PD        0.466952    0.240655    0.799937     0.005394
PD3796   PD        0.534408    0.271463    0.767162     0.005394
PD3797   PD        0.600632    0.274136    0.770292     0.005394
PD3798   PD        0.265630    0.305671    0.800038     0.005394
PD3799   PD        0.302980    0.304234    0.766800     0.005394
PD3800   PD        0.301798    0.337626    0.797353     0.005394
PD3801   PD        0.403566    0.336674    0.902414     0.005394
AU3802   AU        0.336431    0.335622    0.767515     0.007504
AU3803   AU        0.370343    0.303585    0.766242     0.007504
PD3804   PD        0.368299    0.336156    0.798625     0.005394
AU3805   AU        0.403546    0.304064    0.801937     0.007504
PD3806   PD        0.403395    0.336193    0.768695     0.005394
AU3807   AU        0.436301    0.301306    0.767863     0.007504
PD3808   PD        0.435930    0.335898    0.801873     0.005394
PD3809   PD        0.471364    0.306300    0.798604     0.005394
PD3810   PD        0.467206    0.335104    0.765899     0.005394
AU3811   AU        0.502671    0.304862    0.767346     0.007504
AU3812   AU        0.502611    0.339747    0.799900     0.007504
PD3813   PD        0.536668    0.300540    0.798511     0.005394
AU3814   AU        0.534910    0.338352    0.767633     0.007504
PD3815   PD        0.567276    0.305537    0.764799     0.005394
PD3816   PD        0.566619    0.335763    0.800069     0.005394
PD3817   PD        0.601146    0.338004    0.767325     0.005394
PD3818   PD        0.205227    0.435948    0.798166     0.005394
PD3819   PD        0.240317    0.369307    0.767180     0.005394
PD3820   PD        0.271428    0.367917    0.800318     0.005394
PD3821   PD        0.267958    0.402880    0.767082     0.005394
PD3822   PD        0.301712    0.370048    0.766674     0.005394
AU3823   AU        0.299993    0.404442    0.798647     0.007504
PD3824   PD        0.333762    0.371017    0.799335     0.005394
AU3825   AU        0.335168    0.404185    0.765496     0.007504
AU3826   AU        0.368109    0.369401    0.767057     0.007504
PD3827   PD        0.369212    0.402997    0.799034     0.005394
PD3828   PD        0.398813    0.370623    0.801806     0.005394
PD3829   PD        0.402137    0.402581    0.766611     0.005394
AU3830   AU        0.437430    0.370618    0.768383     0.007504
AU3831   AU        0.435033    0.403264    0.800653     0.007504
PD3832   PD        0.466443    0.370217    0.800187     0.005394
PD3833   PD        0.470297    0.404255    0.765321     0.005394
AU3834   AU        0.501040    0.371219    0.767168     0.007504
AU3835   AU        0.502509    0.404301    0.800566     0.007504
PD3836   PD        0.534486    0.371892    0.802880     0.005394
AU3837   AU        0.534907    0.403396    0.768637     0.007504
AU3838   AU        0.568037    0.369212    0.766372     0.007504
AU3839   AU        0.568221    0.401187    0.799833     0.007504
PD3840   PD        0.629312    0.396229    0.804635     0.005394
AU3841   AU        0.601431    0.403820    0.766948     0.007504
AU3842   AU        0.635244    0.368835    0.766502     0.007504
PD3843   PD        0.665618    0.401287    0.768108     0.005394
AU3844   AU        0.203682    0.470792    0.765960     0.007504
AU3845   AU        0.235387    0.437799    0.763973     0.007504
PD3846   PD        0.237732    0.441693    0.836936     0.005394
PD3847   PD        0.267613    0.472005    0.765538     0.005394
PD3848   PD        0.307661    0.433839    0.766730     0.005394
PD3849   PD        0.304025    0.467452    0.800179     0.005394
PD3850   PD        0.337588    0.436678    0.800705     0.005394
PD3851   PD        0.335325    0.470056    0.767314     0.005394
PD3852   PD        0.369331    0.437338    0.767020     0.005394
PD3853   PD        0.369345    0.472177    0.799613     0.005394
PD3854   PD        0.403041    0.438219    0.799348     0.005394
PD3855   PD        0.400536    0.469599    0.767195     0.005394
PD3856   PD        0.435402    0.438274    0.767557     0.005394
PD3857   PD        0.439068    0.470903    0.801367     0.005394
PD3858   PD        0.469120    0.434689    0.800555     0.005394
AU3859   AU        0.470281    0.469436    0.768065     0.007504
PD3860   PD        0.502127    0.434047    0.767995     0.005394
AU3861   AU        0.504203    0.469051    0.801212     0.007504
AU3862   AU        0.534897    0.437135    0.802406     0.007504
AU3863   AU        0.535720    0.469487    0.765976     0.007504
AU3864   AU        0.568283    0.436583    0.767594     0.007504
AU3865   AU        0.567884    0.469315    0.800500     0.007504
PD3866   PD        0.597663    0.434424    0.801168     0.005394
PD3867   PD        0.602879    0.471328    0.767381     0.005394
PD3868   PD        0.632127    0.436984    0.766877     0.005394
PD3869   PD        0.666364    0.470138    0.765388     0.005394
PD3870   PD        0.207361    0.505371    0.798617     0.005394
PD3871   PD        0.269560    0.502870    0.798190     0.005394
PD3872   PD        0.272688    0.533036    0.767787     0.005394
PD3873   PD        0.302324    0.500247    0.765791     0.005394
PD3874   PD        0.306237    0.535988    0.795349     0.005394
AU3875   AU        0.338604    0.503845    0.798714     0.007504
PD3876   PD        0.338709    0.535994    0.765362     0.005394
AU3877   AU        0.370269    0.503780    0.765894     0.007504
AU3878   AU        0.371911    0.538764    0.802092     0.007504
PD3879   PD        0.401710    0.501943    0.800161     0.005394
AU3880   AU        0.403767    0.536399    0.767920     0.007504
AU3881   AU        0.435605    0.503949    0.768586     0.007504
PD3882   PD        0.432781    0.534269    0.801528     0.005394
AU3883   AU        0.470746    0.504879    0.799681     0.007504
PD3884   PD        0.469604    0.536871    0.768476     0.005394
PD3885   PD        0.503999    0.501470    0.766076     0.005394
PD3886   PD        0.502927    0.538364    0.801001     0.005394
AU3887   AU        0.536308    0.502583    0.797861     0.007504
PD3888   PD        0.533753    0.533999    0.767789     0.005394
PD3889   PD        0.569667    0.503520    0.767576     0.005394
AU3890   AU        0.566858    0.537631    0.797046     0.007504
PD3891   PD        0.633992    0.468124    0.801503     0.005394
PD3892   PD        0.601806    0.535914    0.770158     0.005394
PD3893   PD        0.632855    0.504536    0.769439     0.005394
PD3894   PD        0.272172    0.603678    0.768883     0.005394
AU3895   AU        0.305258    0.571700    0.765423     0.007504
PD3896   PD        0.337386    0.570266    0.798353     0.005394
AU3897   AU        0.338183    0.604391    0.768239     0.007504
AU3898   AU        0.371220    0.571007    0.768038     0.007504
AU3899   AU        0.371162    0.602967    0.802212     0.007504
PD3900   PD        0.403831    0.571614    0.801873     0.005394
AU3901   AU        0.404403    0.604554    0.768176     0.007504
AU3902   AU        0.433919    0.570670    0.767411     0.007504
AU3903   AU        0.436053    0.606698    0.800339     0.007504
AU3904   AU        0.467365    0.570805    0.801294     0.007504
AU3905   AU        0.467862    0.601607    0.766682     0.007504
PD3906   PD        0.500552    0.568358    0.765101     0.005394
AU3907   AU        0.500687    0.602097    0.800323     0.007504
PD3908   PD        0.535989    0.571576    0.795215     0.005394
PD3909   PD        0.534037    0.601215    0.767779     0.005394
PD3910   PD        0.567792    0.570716    0.768698     0.005394
PD3911   PD        0.601255    0.603983    0.767676     0.005394
PD3912   PD        0.371911    0.636315    0.768517     0.005394
AU3913   AU        0.403882    0.669261    0.768480     0.007504
PD3914   PD        0.437286    0.637210    0.766679     0.005394
AU3915   AU        0.468162    0.668131    0.766404     0.007504
AU3916   AU        0.500633    0.635477    0.769617     0.007504
PD3917   PD        0.400949    0.404840    0.833916     0.005394
PD3918   PD        0.435707    0.371003    0.833988     0.005394
AU3919   AU        0.469024    0.403769    0.833481     0.007504
PD3920   PD        0.369424    0.437345    0.832522     0.005394
PD3921   PD        0.402241    0.470796    0.834738     0.005394
PD3922   PD        0.438767    0.437875    0.830358     0.005394
PD3923   PD        0.503545    0.474602    0.867665     0.005394
PD3924   PD        0.499645    0.437602    0.833656     0.005394
PD3925   PD        0.440738    0.500425    0.835268     0.005394
